; Filename: /home/cristian-curaba/Desktop/Resilience/WNTR/wntr/tests/networks_for_testing/msx_example.inp
; WNTR: 1.3.0rc2
; Created: 2025-01-31 12:19:34
[TITLE]
EPANET-MSX Example Network

[JUNCTIONS]
;ID                      Elevation       Demand Pattern                 
 A                                  0             4.1                            ;
 B                                  0             3.4                            ;
 C                                  0             5.5                            ;
 D                                  0             2.3                            ;

[RESERVOIRS]
;ID                                   Head                  Pattern
 Source                           100                            ;

[TANKS]
;ID                              Elevation           Init Level            Min Level            Max Level             Diameter           Min Volume Volume Curve         Overflow            

[PIPES]
;ID                   Node1                Node2                              Length             Diameter            Roughness           Minor Loss               Status
 1                    Source               A                               1000             200             100               0                 Open   ;
 2                    A                    B                                800             150             100               0                 Open   ;
 3                    A                    C                               1200             200             100               0                 Open   ;
 4                    B                    C                               1000             150             100               0                 Open   ;
 5                    C                    D                               2000             150             100               0                 Open   ;

[PUMPS]
;ID                   Node1                Node2                Properties          

[VALVES]
;ID                   Node1                Node2                            Diameter Type              Setting           Minor Loss

[TAGS]
;type      name       tag       

[DEMANDS]
;ID        Demand     Pattern   

[STATUS]
;ID        Setting   

[PATTERNS]
;ID        Multipliers

[CURVES]
;ID         X-Value      Y-Value     

[CONTROLS]

[RULES]

[ENERGY]
GLOBAL PRICE           0.0000

[EMITTERS]
;ID        Flow coefficient

[QUALITY]

[SOURCES]
;Node      Type       Quality    Pattern   

[REACTIONS]
;Type           Pipe/Tank               Coefficient

 ORDER BULK 1
 ORDER TANK 1
 ORDER WALL 1
 GLOBAL BULK 0.0000    
 GLOBAL WALL 0.0000    

[MIXING]
;Tank ID             Model Fraction

[TIMES]
DURATION             48:00:00
HYDRAULIC TIMESTEP   01:00:00
QUALITY TIMESTEP     00:05:00
PATTERN TIMESTEP     01:00:00
PATTERN START        00:00:00
REPORT TIMESTEP      02:00:00
REPORT START         00:00:00
START CLOCKTIME      00:00:00 AM
RULE TIMESTEP        00:06:00
STATISTIC            NONE      

[REPORT]

[OPTIONS]
UNITS                CMH                 
HEADLOSS             H-W                 
SPECIFIC GRAVITY     1
VISCOSITY            1
TRIALS               200
ACCURACY             0.001
CHECKFREQ            2
MAXCHECK             10
UNBALANCED           STOP                
DEMAND MULTIPLIER    1
EMITTER EXPONENT     0.5
QUALITY              NONE                
DIFFUSIVITY          1
TOLERANCE            0.01

[COORDINATES]
;Node      X-Coord    Y-Coord   
A                   0.000000000          0.000000000
B                   0.000000000          0.000000000
C                   0.000000000          0.000000000
D                   0.000000000          0.000000000
Source              0.000000000          0.000000000

[VERTICES]
;Link      X-Coord    Y-Coord   

[LABELS]

[BACKDROP]
UNITS    NONE

[END]
