[TITLE]
prueba

[JUNCTIONS]
;ID              	Elev        	Demand      	Pattern         
 JCASS_0001      	216.12      	0.00613     	CassaccoPens._consumi	;
 JCASS_0002      	164.72      	0.00403     	CassaccoInt._consumi	;
 JCASS_0003      	183.13      	0.00403     	CassaccoInt._consumi	;
 JCASS_0004      	214.70      	0.00613     	CassaccoPens._consumi	;
 JCASS_0005      	226.13      	0.00613     	CassaccoPens._consumi	;
 JCASS_0006      	182.65      	0.00403     	CassaccoInt._consumi	;
 JCASS_0007      	214.85      	0.00613     	CassaccoPens._consumi	;
 JCASS_0008      	199.83      	0.00613     	CassaccoPens._consumi	;
 JCASS_0009      	171.94      	0.00403     	CassaccoInt._consumi	;
 JCASS_0010      	195.48      	0.00613     	CassaccoPens._consumi	;
 JCASS_0011      	219.81      	0.00613     	CassaccoPens._consumi	;
 JCASS_0012      	179.36      	0.00403     	CassaccoInt._consumi	;
 JCASS_0013      	196.64      	0.00613     	CassaccoPens._consumi	;
 JCASS_0015      	219.81      	0.00613     	CassaccoPens._consumi	;
 JCASS_0016      	219.01      	0.00613     	CassaccoPens._consumi	;
 JCASS_0017      	219.97      	0.00613     	CassaccoPens._consumi	;
 JCASS_0018      	218.99      	0.00613     	CassaccoPens._consumi	;
 JCASS_0019      	190.94      	0.00403     	CassaccoInt._consumi	;
 JCASS_0020      	193.86      	0.00613     	CassaccoPens._consumi	;
 JCASS_0021      	188.63      	0.00403     	CassaccoInt._consumi	;
 JCASS_0022      	219.93      	0.00613     	CassaccoPens._consumi	;
 JCASS_0023      	220.75      	0.00613     	CassaccoPens._consumi	;
 JCASS_0024      	194.89      	0.00613     	CassaccoPens._consumi	;
 JCASS_0025      	187.52      	0.00403     	CassaccoInt._consumi	;
 JCASS_0026      	217.66      	0.00613     	CassaccoPens._consumi	;
 JCASS_0027      	222.26      	0.00613     	CassaccoPens._consumi	;
 JCASS_0028      	214.01      	0.00613     	CassaccoPens._consumi	;
 JCASS_0029      	217.98      	0.00613     	CassaccoPens._consumi	;
 JCASS_0030      	187.97      	0.00403     	CassaccoInt._consumi	;
 JCASS_0031      	196.12      	0.00403     	CassaccoInt._consumi	;
 JCASS_0032      	190.50      	0.00403     	CassaccoInt._consumi	;
 JCASS_0033      	200.48      	0.00613     	CassaccoPens._consumi	;
 JCASS_0034      	189.27      	0.00403     	CassaccoInt._consumi	;
 JCASS_0035      	221.91      	0.00613     	CassaccoPens._consumi	;
 JCASS_0036      	223.59      	0.00613     	CassaccoPens._consumi	;
 JCASS_0037      	226.79      	0.00613     	CassaccoPens._consumi	;
 JCASS_0038      	226.89      	0.00613     	CassaccoPens._consumi	;
 JCASS_0039      	226.34      	0.00613     	CassaccoPens._consumi	;
 JCASS_0040      	227.73      	0.00613     	CassaccoPens._consumi	;
 JCASS_0041      	187.05      	0.00403     	CassaccoInt._consumi	;
 JCASS_0042      	189.27      	0.00403     	CassaccoInt._consumi	;
 JCASS_0043      	227.99      	0.00613     	CassaccoPens._consumi	;
 JCASS_0044      	188.74      	0.00403     	CassaccoInt._consumi	;
 JCASS_0045      	166.13      	0.00403     	CassaccoInt._consumi	;
 JCASS_0046      	227.99      	0.00613     	CassaccoPens._consumi	;
 JCASS_0047      	218.39      	0.00613     	CassaccoPens._consumi	;
 JCASS_0048      	229.35      	0.00613     	CassaccoPens._consumi	;
 JCASS_0049      	227.99      	0.00613     	CassaccoPens._consumi	;
 JCASS_0050      	186.87      	0.00403     	CassaccoInt._consumi	;
 JCASS_0051      	223.96      	0.00613     	CassaccoPens._consumi	;
 JCASS_0052      	229.37      	0.00613     	CassaccoPens._consumi	;
 JCASS_0053      	228.19      	0.00613     	CassaccoPens._consumi	;
 JCASS_0054      	228.19      	0.00613     	CassaccoPens._consumi	;
 JCASS_0055      	228.19      	0.00613     	CassaccoPens._consumi	;
 JCASS_0056      	185.68      	0.00403     	CassaccoInt._consumi	;
 JCASS_0057      	229.55      	0.00613     	CassaccoPens._consumi	;
 JCASS_0058      	234.79      	0.00613     	CassaccoPens._consumi	;
 JCASS_0059      	184.04      	0.00403     	CassaccoInt._consumi	;
 JCASS_0060      	188.80      	0.00403     	CassaccoInt._consumi	;
 JCASS_0061      	228.87      	0.00613     	CassaccoPens._consumi	;
 JCASS_0062      	228.43      	0.00613     	CassaccoPens._consumi	;
 JCASS_0063      	223.43      	0.00613     	CassaccoPens._consumi	;
 JCASS_0064      	229.78      	0.00613     	CassaccoPens._consumi	;
 JCASS_0065      	229.40      	0.00613     	CassaccoPens._consumi	;
 JCASS_0066      	232.22      	0.00613     	CassaccoPens._consumi	;
 JCASS_0067      	222.56      	0.00613     	CassaccoPens._consumi	;
 JCASS_0068      	221.64      	0.00613     	CassaccoPens._consumi	;
 JCASS_0069      	166.77      	0.00403     	CassaccoInt._consumi	;
 JCASS_0070      	222.84      	0.00613     	CassaccoPens._consumi	;
 JCASS_0071      	229.79      	0.00613     	CassaccoPens._consumi	;
 JCASS_0072      	228.94      	0.00613     	CassaccoPens._consumi	;
 JCASS_0073      	225.42      	0.00613     	CassaccoPens._consumi	;
 JCASS_0074      	226.96      	0.00613     	CassaccoPens._consumi	;
 JCASS_0075      	226.30      	0.00613     	CassaccoPens._consumi	;
 JCASS_0076      	238.16      	0.00613     	CassaccoPens._consumi	;
 JCASS_0077      	189.16      	0.00403     	CassaccoInt._consumi	;
 JCASS_0078      	225.22      	0.00613     	CassaccoPens._consumi	;
 JCASS_0079      	183.46      	0.00403     	CassaccoInt._consumi	;
 JCASS_0080      	159.47      	0.00403     	CassaccoInt._consumi	;
 JCASS_0081      	162.80      	0.00403     	CassaccoInt._consumi	;
 JCASS_0082      	222.28      	0.00613     	CassaccoPens._consumi	;
 JCASS_0083      	227.75      	0.00613     	CassaccoPens._consumi	;
 JCASS_0084      	228.85      	0.00613     	CassaccoPens._consumi	;
 JCASS_0085      	229.06      	0.00613     	CassaccoPens._consumi	;
 JCASS_0086      	227.34      	0.00613     	CassaccoPens._consumi	;
 JCASS_0087      	189.19      	0.00403     	CassaccoInt._consumi	;
 JCASS_0088      	232.50      	0.00613     	CassaccoPens._consumi	;
 JCASS_0089      	215.84      	0.00613     	CassaccoPens._consumi	;
 JCASS_0090      	220.27      	0.00613     	CassaccoPens._consumi	;
 JCASS_0091      	193.22      	0.00403     	CassaccoInt._consumi	;
 JCASS_0092      	167.00      	0.00403     	CassaccoInt._consumi	;
 JCASS_0093      	234.56      	0.00613     	CassaccoPens._consumi	;
 JCASS_0094      	164.63      	0.00403     	CassaccoInt._consumi	;
 JCASS_0095      	226.65      	0.00613     	CassaccoPens._consumi	;
 JCASS_0096      	189.21      	0.00403     	CassaccoInt._consumi	;
 JCASS_0097      	225.08      	0.00613     	CassaccoPens._consumi	;
 JCASS_0098      	169.98      	0.00403     	CassaccoInt._consumi	;
 JCASS_0099      	225.45      	0.00613     	CassaccoPens._consumi	;
 JCASS_0100      	218.42      	0.00613     	CassaccoPens._consumi	;
 JCASS_0101      	170.93      	0.00403     	CassaccoInt._consumi	;
 JCASS_0102      	238.34      	0.00613     	CassaccoPens._consumi	;
 JCASS_0103      	229.13      	0.00613     	CassaccoPens._consumi	;
 JCASS_0104      	162.67      	0.00403     	CassaccoInt._consumi	;
 JCASS_0105      	221.38      	0.00613     	CassaccoPens._consumi	;
 JCASS_0106      	234.25      	0.00613     	CassaccoPens._consumi	;
 JCASS_0107      	184.84      	0.00403     	CassaccoInt._consumi	;
 JCASS_0108      	168.10      	0.00403     	CassaccoInt._consumi	;
 JCASS_0109      	238.58      	0.00613     	CassaccoPens._consumi	;
 JCASS_0110      	237.70      	0.00613     	CassaccoPens._consumi	;
 JCASS_0111      	238.55      	0.00613     	CassaccoPens._consumi	;
 JCASS_0112      	162.60      	0.00403     	CassaccoInt._consumi	;
 JCASS_0113      	237.38      	0.00613     	CassaccoPens._consumi	;
 JCASS_0114      	220.64      	0.00613     	CassaccoPens._consumi	;
 JCASS_0115      	188.14      	0.00403     	CassaccoInt._consumi	;
 JCASS_0116      	235.99      	0.00613     	CassaccoPens._consumi	;
 JCASS_0117      	221.00      	0.00613     	CassaccoPens._consumi	;
 JCASS_0118      	237.25      	0.00613     	CassaccoPens._consumi	;
 JCASS_0119      	220.38      	0.00613     	CassaccoPens._consumi	;
 JCASS_0120      	220.47      	0.00613     	CassaccoPens._consumi	;
 JCASS_0121      	189.13      	0.00403     	CassaccoInt._consumi	;
 JCASS_0122      	187.78      	0.00403     	CassaccoInt._consumi	;
 JCASS_0123      	220.21      	0.00613     	CassaccoPens._consumi	;
 JCASS_0124      	231.99      	0.00613     	CassaccoPens._consumi	;
 JCASS_0125      	161.04      	0.00403     	CassaccoInt._consumi	;
 JCASS_0126      	179.74      	0.00403     	CassaccoInt._consumi	;
 JCASS_0127      	179.07      	0.00403     	CassaccoInt._consumi	;
 JCASS_0128      	194.48      	0.00403     	CassaccoInt._consumi	;
 JCASS_0129      	194.48      	0.00403     	CassaccoInt._consumi	;
 JCASS_0130      	195.09      	0.00613     	CassaccoPens._consumi	;
 JCASS_0131      	232.19      	0.00613     	CassaccoPens._consumi	;
 JCASS_0132      	186.75      	0.00613     	CassaccoPens._consumi	;
 JCASS_0133      	195.42      	0.00613     	CassaccoPens._consumi	;
 JCASS_0134      	175.89      	0.00403     	CassaccoInt._consumi	;
 JCASS_0135      	194.77      	0.00613     	CassaccoPens._consumi	;
 JCASS_0136      	195.35      	0.00613     	CassaccoPens._consumi	;
 JCASS_0137      	193.16      	0.00403     	CassaccoInt._consumi	;
 JCASS_0138      	226.94      	0.00613     	CassaccoPens._consumi	;
 JCASS_0139      	194.28      	0.00613     	CassaccoPens._consumi	;
 JCASS_0140      	205.67      	0.00613     	CassaccoPens._consumi	;
 JCASS_0141      	225.20      	0.00613     	CassaccoPens._consumi	;
 JCASS_0142      	192.44      	0.00613     	CassaccoPens._consumi	;
 JCASS_0143      	203.41      	0.00403     	CassaccoInt._consumi	;
 JCASS_0144      	204.63      	0.00403     	CassaccoInt._consumi	;
 JCASS_0145      	202.38      	0.00403     	CassaccoInt._consumi	;
 JCASS_0146      	191.21      	0.00613     	CassaccoPens._consumi	;
 JCASS_0147      	203.26      	0.00403     	CassaccoInt._consumi	;
 JCASS_0148      	184.17      	0.00613     	CassaccoPens._consumi	;
 JCASS_0149      	189.47      	0.00613     	CassaccoPens._consumi	;
 JCASS_0150      	194.48      	0.00613     	CassaccoPens._consumi	;
 JCASS_0151      	180.14      	0.00403     	CassaccoInt._consumi	;
 JCASS_0152      	206.62      	0.00403     	CassaccoInt._consumi	;
 JCASS_0153      	210.35      	0.00613     	CassaccoPens._consumi	;
 JCASS_0154      	210.48      	0.00613     	CassaccoPens._consumi	;
 JCASS_0155      	210.35      	0.00613     	CassaccoPens._consumi	;
 JCASS_0156      	193.57      	0.00613     	CassaccoPens._consumi	;
 JCASS_0157      	200.54      	0.00613     	CassaccoPens._consumi	;
 JCASS_0158      	204.73      	0.00403     	CassaccoInt._consumi	;
 JCASS_0159      	220.16      	0.00613     	CassaccoPens._consumi	;
 JCASS_0160      	187.51      	0.00613     	CassaccoPens._consumi	;
 JCASS_0161      	204.52      	0.00403     	CassaccoInt._consumi	;
 JCASS_0162      	215.65      	0.00613     	CassaccoPens._consumi	;
 JCASS_0163      	211.89      	0.00613     	CassaccoPens._consumi	;
 JCASS_0164      	205.75      	0.00403     	CassaccoInt._consumi	;
 JCASS_0165      	194.12      	0.00613     	CassaccoPens._consumi	;
 JCASS_0166      	179.80      	0.00403     	CassaccoInt._consumi	;
 JCASS_0167      	190.38      	0.00613     	CassaccoPens._consumi	;
 JCASS_0168      	220.59      	0.00613     	CassaccoPens._consumi	;
 JCASS_0169      	214.68      	0.00613     	CassaccoPens._consumi	;
 JCASS_0170      	219.34      	0.00613     	CassaccoPens._consumi	;
 JCASS_0171      	188.49      	0.00403     	CassaccoInt._consumi	;
 JCASS_0172      	214.93      	0.00613     	CassaccoPens._consumi	;
 JCASS_0173      	196.29      	0.00403     	CassaccoInt._consumi	;
 JCASS_0174      	199.42      	0.00403     	CassaccoInt._consumi	;
 JCASS_0175      	203.61      	0.00613     	CassaccoPens._consumi	;
 JCASS_0176      	222.72      	0.00613     	CassaccoPens._consumi	;
 JCASS_0177      	218.60      	0.00613     	CassaccoPens._consumi	;
 JCASS_0178      	166.03      	0.00403     	CassaccoInt._consumi	;
 JCASS_0179      	178.17      	0.00403     	CassaccoInt._consumi	;
 JCASS_0180      	224.07      	0.00613     	CassaccoPens._consumi	;
 JCASS_0181      	221.76      	0.00613     	CassaccoPens._consumi	;
 JCASS_0182      	174.09      	0.00403     	CassaccoInt._consumi	;
 JCASS_0183      	172.42      	0.00403     	CassaccoInt._consumi	;
 JCASS_0184      	207.12      	0.00403     	CassaccoInt._consumi	;
 JCASS_0185      	220.60      	0.00613     	CassaccoPens._consumi	;
 JCASS_0186      	224.62      	0.00613     	CassaccoPens._consumi	;
 JCASS_0187      	173.81      	0.00403     	CassaccoInt._consumi	;
 JCASS_0188      	173.81      	0.00403     	CassaccoInt._consumi	;
 JCASS_0189      	225.84      	0.00613     	CassaccoPens._consumi	;
 JCASS_0190      	202.99      	0.00403     	CassaccoInt._consumi	;
 JCASS_0191      	225.47      	0.00613     	CassaccoPens._consumi	;
 JCASS_0192      	204.65      	0.00403     	CassaccoInt._consumi	;
 JCASS_0193      	228.32      	0.00613     	CassaccoPens._consumi	;
 JCASS_0194      	224.54      	0.00613     	CassaccoPens._consumi	;
 JCASS_0195      	228.49      	0.00613     	CassaccoPens._consumi	;
 JCASS_0196      	227.67      	0.00613     	CassaccoPens._consumi	;
 JCASS_0197      	225.54      	0.00613     	CassaccoPens._consumi	;
 JCASS_0198      	221.64      	0.00613     	CassaccoPens._consumi	;
 JCASS_0199      	224.47      	0.00613     	CassaccoPens._consumi	;
 JCASS_0200      	222.44      	0.00613     	CassaccoPens._consumi	;
 JCASS_0201      	227.31      	0.00613     	CassaccoPens._consumi	;
 JCASS_0202      	206.59      	0.00403     	CassaccoInt._consumi	;
 JCASS_0204      	228.27      	0.00613     	CassaccoPens._consumi	;
 JCASS_0205      	174.60      	0.00403     	CassaccoInt._consumi	;
 JCASS_0206      	237.79      	0.00613     	CassaccoPens._consumi	;
 JCASS_0207      	226.34      	0.00613     	CassaccoPens._consumi	;
 JCASS_0208      	217.26      	0.00613     	CassaccoPens._consumi	;
 JCASS_0209      	169.10      	0.00403     	CassaccoInt._consumi	;
 JCASS_0210      	176.11      	0.00403     	CassaccoInt._consumi	;
 JCASS_0211      	216.41      	0.00613     	CassaccoPens._consumi	;
 JCASS_0212      	238.85      	0.00613     	CassaccoPens._consumi	;
 JCASS_0213      	174.46      	0.00403     	CassaccoInt._consumi	;
 JCASS_0214      	206.48      	0.00403     	CassaccoInt._consumi	;
 JCASS_0215      	205.73      	0.00403     	CassaccoInt._consumi	;
 JCASS_0216      	222.69      	0.00613     	CassaccoPens._consumi	;
 JCASS_0217      	243.81      	0.00613     	CassaccoPens._consumi	;
 JCASS_0218      	169.44      	0.00403     	CassaccoInt._consumi	;
 JCASS_0219      	232.21      	0.00613     	CassaccoPens._consumi	;
 JCASS_0220      	169.36      	0.00403     	CassaccoInt._consumi	;
 JCASS_0221      	174.09      	0.00403     	CassaccoInt._consumi	;
 JCASS_0222      	177.14      	0.00403     	CassaccoInt._consumi	;
 JCASS_0223      	174.39      	0.00403     	CassaccoInt._consumi	;
 JCASS_0224      	172.92      	0.00403     	CassaccoInt._consumi	;
 JCASS_0225      	171.01      	0.00403     	CassaccoInt._consumi	;
 JCASS_0226      	243.13      	0.00613     	CassaccoPens._consumi	;
 JCASS_0227      	229.00      	0.00613     	CassaccoPens._consumi	;
 JCASS_0228      	172.54      	0.00403     	CassaccoInt._consumi	;
 JCASS_0229      	233.10      	0.00613     	CassaccoPens._consumi	;
 JCASS_0230      	233.10      	0.00613     	CassaccoPens._consumi	;
 JCASS_0231      	191.48      	0.00613     	CassaccoPens._consumi	;
 JCASS_0232      	177.09      	0.00403     	CassaccoInt._consumi	;
 JCASS_0233      	177.60      	0.00403     	CassaccoInt._consumi	;
 JCASS_0234      	177.60      	0.00403     	CassaccoInt._consumi	;
 JCASS_0235      	204.79      	0.00403     	CassaccoInt._consumi	;
 JCASS_0236      	205.16      	0.00403     	CassaccoInt._consumi	;
 JCASS_0237      	195.43      	0.00403     	CassaccoInt._consumi	;
 JCASS_0238      	216.29      	0.00403     	CassaccoInt._consumi	;
 JCASS_0239      	179.13      	0.00403     	CassaccoInt._consumi	;
 JCASS_0240      	197.72      	0.00403     	CassaccoInt._consumi	;
 JCASS_0241      	244.94      	0           	                	;
 JCASS_0242      	244.86      	0           	                	;
 JCASS_0243      	193.70      	0.00403     	CassaccoInt._consumi	;
 JCASS_0244      	244.64      	0           	                	;
 JCASS_0245      	244.74      	0           	                	;
 JCASS_0246      	244.52      	0           	                	;
 JCASS_0247      	187.45      	0.00613     	CassaccoPens._consumi	;
 JCASS_0248      	221.44      	0.00403     	CassaccoInt._consumi	;
 JCASS_0249      	173.84      	0.00403     	CassaccoInt._consumi	;
 JCASS_0250      	202.11      	0.00403     	CassaccoInt._consumi	;
 JCASS_0251      	198.55      	0.00403     	CassaccoInt._consumi	;
 JCASS_0252      	174.20      	0.00403     	CassaccoInt._consumi	;
 JCASS_0253      	195.81      	0.00403     	CassaccoInt._consumi	;
 JCASS_0254      	197.98      	0.00403     	CassaccoInt._consumi	;
 JCASS_0255      	174.39      	0.00403     	CassaccoInt._consumi	;
 JCASS_0256      	174.45      	0.00403     	CassaccoInt._consumi	;
 JCASS_0257      	174.55      	0.00403     	CassaccoInt._consumi	;
 JCASS_0258      	202.46      	0.00403     	CassaccoInt._consumi	;
 JCASS_0259      	199.55      	0.00403     	CassaccoInt._consumi	;
 JCASS_0260      	176.05      	0.00403     	CassaccoInt._consumi	;
 JCASS_0261      	189.95      	0.00403     	CassaccoInt._consumi	;
 JCASS_0262      	198.54      	0.00403     	CassaccoInt._consumi	;
 JCASS_0263      	203.52      	0.00403     	CassaccoInt._consumi	;
 JCASS_0264      	175.01      	0.00403     	CassaccoInt._consumi	;
 JCASS_0265      	195.32      	0.00403     	CassaccoInt._consumi	;
 JCASS_0266      	196.36      	0.00403     	CassaccoInt._consumi	;
 JCASS_0267      	174.33      	0.00403     	CassaccoInt._consumi	;
 JCASS_0268      	195.69      	0.00403     	CassaccoInt._consumi	;
 JCASS_0269      	194.58      	0.00403     	CassaccoInt._consumi	;
 JCASS_0270      	203.65      	0           	                	;
 JCASS_0271      	197.04      	0.00403     	CassaccoInt._consumi	;
 JCASS_0272      	212.10      	0.00403     	CassaccoInt._consumi	;
 JCASS_0273      	196.32      	0.00403     	CassaccoInt._consumi	;
 JCASS_0274      	196.59      	0.00403     	CassaccoInt._consumi	;
 JCASS_0275      	175.47      	0.00403     	CassaccoInt._consumi	;
 JCASS_0276      	218.09      	0.00613     	CassaccoPens._consumi	;
 JCASS_0277      	218.09      	0.00403     	CassaccoInt._consumi	;
 JCASS_0278      	175.34      	0.00403     	CassaccoInt._consumi	;
 JCASS_0279      	196.00      	0.00403     	CassaccoInt._consumi	;
 JCASS_0280      	214.98      	0.00403     	CassaccoInt._consumi	;
 JCASS_0281      	214.98      	0.00613     	CassaccoPens._consumi	;
 JCASS_0282      	214.98      	0.00403     	CassaccoInt._consumi	;Press ist: 3.2 bar
 JCASS_0283      	238.39      	0.00613     	CassaccoPens._consumi	;
 JCASS_0284      	199.51      	0.00403     	CassaccoInt._consumi	;
 JCASS_0285      	208.74      	0.00403     	CassaccoInt._consumi	;
 JCASS_0286      	215.01      	0.00403     	CassaccoInt._consumi	;Via San Giusto 14: rilevati 3 bar
 JCASS_0287      	175.99      	0.00403     	CassaccoInt._consumi	;
 JCASS_0288      	193.75      	0.00403     	CassaccoInt._consumi	;
 JCASS_0289      	224.00      	0.00403     	CassaccoInt._consumi	;
 JCASS_0290      	195.14      	0.00403     	CassaccoInt._consumi	;
 JCASS_0291      	195.83      	0.00403     	CassaccoInt._consumi	;
 JCASS_0292      	233.35      	0.00613     	CassaccoPens._consumi	;
 JCASS_0293      	233.35      	0.00403     	CassaccoInt._consumi	;
 JCASS_0294      	232.60      	0.00403     	CassaccoInt._consumi	;
 JCASS_0295      	194.99      	0.00403     	CassaccoInt._consumi	;
 JCASS_0296      	194.75      	0.00403     	CassaccoInt._consumi	;
 JCASS_0297      	176.93      	0.00403     	CassaccoInt._consumi	;
 JCASS_0298      	229.00      	0.00613     	CassaccoPens._consumi	;
 JCASS_0299      	216.34      	0.00403     	CassaccoInt._consumi	;
 JCASS_0300      	176.95      	0.00403     	CassaccoInt._consumi	;
 JCASS_0301      	196.58      	0.00403     	CassaccoInt._consumi	;
 JCASS_0302      	177.95      	0.00403     	CassaccoInt._consumi	;
 JCASS_0303      	219.76      	0.00613     	CassaccoPens._consumi	;
 JCASS_0304      	196.73      	0.00403     	CassaccoInt._consumi	;Press ist: 4.7 bar
 JCASS_0305      	208.16      	0.00613     	CassaccoPens._consumi	;Rilevati 3.6-3.7 bar
 JCASS_0306      	173.74      	0.00403     	CassaccoInt._consumi	;
 JCASS_0307      	177.98      	0.00403     	CassaccoInt._consumi	;
 JCASS_0308      	188.63      	0.00613     	CassaccoPens._consumi	;
 JCASS_0309      	176.09      	0.00403     	CassaccoInt._consumi	;
 JCASS_0310      	203.09      	0.00403     	CassaccoInt._consumi	;
 JCASS_0311      	176.09      	0.00403     	CassaccoInt._consumi	;
 JCASS_0312      	212.04      	0.00403     	CassaccoInt._consumi	;
 JCASS_0313      	202.62      	0.00403     	CassaccoInt._consumi	;
 JCASS_0314      	201.63      	0.00403     	CassaccoInt._consumi	;
 JCASS_0315      	212.04      	0.00403     	CassaccoInt._consumi	;
 JCASS_0316      	202.86      	0.00403     	CassaccoInt._consumi	;
 JCASS_0317      	215.48      	0.00403     	CassaccoInt._consumi	;
 JCASS_0318      	209.57      	0.00403     	CassaccoInt._consumi	;
 JCASS_0319      	212.10      	0.00403     	CassaccoInt._consumi	;
 JCASS_0320      	205.88      	0.00403     	CassaccoInt._consumi	;
 JCASS_0321      	204.71      	0.00613     	CassaccoPens._consumi	;
 JCASS_0323      	178.87      	0.00403     	CassaccoInt._consumi	;
 JCASS_0324      	195.88      	0.00403     	CassaccoInt._consumi	;
 JCASS_0325      	187.65      	0.00403     	CassaccoInt._consumi	;
 JCASS_0326      	180.92      	0.00403     	CassaccoInt._consumi	;
 JCASS_0327      	200.85      	0.00403     	CassaccoInt._consumi	;
 JCASS_0328      	198.90      	0.00403     	CassaccoInt._consumi	;
 JCASS_0329      	178.63      	0.00403     	CassaccoInt._consumi	;
 JCASS_0330      	190.42      	0.00403     	CassaccoInt._consumi	;
 JCASS_0331      	185.03      	0.00613     	CassaccoPens._consumi	;
 JCASS_0332      	212.53      	0.00403     	CassaccoInt._consumi	;
 JCASS_0333      	198.17      	0.00403     	CassaccoInt._consumi	;
 JCASS_0334      	188.89      	0.00403     	CassaccoInt._consumi	;
 JCASS_0335      	180.25      	0.00403     	CassaccoInt._consumi	;
 JCASS_0336      	188.57      	0.00403     	CassaccoInt._consumi	;
 JCASS_0337      	187.68      	0.00403     	CassaccoInt._consumi	;
 JCASS_0338      	178.43      	0.00403     	CassaccoInt._consumi	;
 JCASS_0339      	194.06      	0.00403     	CassaccoInt._consumi	;
 JCASS_0340      	180.02      	0.00403     	CassaccoInt._consumi	;
 JCASS_0341      	193.04      	0.00403     	CassaccoInt._consumi	;
 JCASS_0342      	173.21      	0.00403     	CassaccoInt._consumi	;
 JCASS_0343      	186.16      	0.00403     	CassaccoInt._consumi	;
 JCASS_0345      	185.50      	0.00403     	CassaccoInt._consumi	;
 JCASS_0346      	180.14      	0.00403     	CassaccoInt._consumi	;
 JCASS_0347      	185.57      	0.00613     	CassaccoPens._consumi	;
 JCASS_0348      	185.15      	0.00403     	CassaccoInt._consumi	;
 JCASS_0349      	178.60      	0.00403     	CassaccoInt._consumi	;
 JCASS_0350      	183.67      	0.00403     	CassaccoInt._consumi	;
 JCASS_0351      	170.92      	0.00403     	CassaccoInt._consumi	;
 JCASS_0352      	173.63      	0.00403     	CassaccoInt._consumi	;
 JCASS_0353      	179.74      	0.00403     	CassaccoInt._consumi	;
 JCASS_0354      	181.58      	0.00403     	CassaccoInt._consumi	;
 JCASS_0355      	171.46      	0.00403     	CassaccoInt._consumi	;
 JCASS_0356      	174.24      	0.00403     	CassaccoInt._consumi	;
 JCASS_0357      	177.12      	0.00403     	CassaccoInt._consumi	;
 JCASS_0358      	171.68      	0.00403     	CassaccoInt._consumi	;
 JCASS_0359      	174.13      	0.00403     	CassaccoInt._consumi	;
 JCASS_0360      	171.15      	0.00403     	CassaccoInt._consumi	;
 JCASS_0361      	174.97      	0.00403     	CassaccoInt._consumi	;
 JCASS_0362      	185.99      	0.00403     	CassaccoInt._consumi	;
 JCASS_0363      	175.14      	0.00403     	CassaccoInt._consumi	;
 JCASS_0364      	179.75      	0.00403     	CassaccoInt._consumi	;
 JCASS_0365      	172.04      	0.00403     	CassaccoInt._consumi	;
 JCASS_0366      	177.60      	0.00403     	CassaccoInt._consumi	;
 JCASS_0367      	174.75      	0.00403     	CassaccoInt._consumi	;
 JCASS_0368      	177.45      	0.00403     	CassaccoInt._consumi	;
 JCASS_0369      	178.80      	0.00403     	CassaccoInt._consumi	;
 JCASS_0370      	184.11      	0.00403     	CassaccoInt._consumi	;
 JCASS_0371      	179.03      	0.00403     	CassaccoInt._consumi	;
 JCASS_0372      	180.88      	0.00403     	CassaccoInt._consumi	;
 JCASS_0373      	183.66      	0.00403     	CassaccoInt._consumi	;
 JCASS_0374      	177.22      	0.00403     	CassaccoInt._consumi	;
 JCASS_0375      	173.38      	0.00403     	CassaccoInt._consumi	;
 JCASS_0376      	176.40      	0.00403     	CassaccoInt._consumi	;
 JCASS_0377      	173.02      	0.00403     	CassaccoInt._consumi	;
 JCASS_0378      	177.93      	0.00403     	CassaccoInt._consumi	;
 JCASS_0379      	177.01      	0.00403     	CassaccoInt._consumi	;
 JCASS_0380      	177.58      	0.00403     	CassaccoInt._consumi	;
 JCASS_0381      	175.62      	0.00403     	CassaccoInt._consumi	;
 JCASS_0382      	176.84      	0.00403     	CassaccoInt._consumi	;
 JCASS_0383      	179.04      	0.00403     	CassaccoInt._consumi	;
 JCASS_0384      	178.45      	0.00403     	CassaccoInt._consumi	;
 JCASS_0385      	173.73      	0.00403     	CassaccoInt._consumi	;
 JCASS_0386      	178.34      	0.00403     	CassaccoInt._consumi	;
 JCASS_0387      	180.99      	0.00403     	CassaccoInt._consumi	;
 JCASS_0388      	181.11      	0.00403     	CassaccoInt._consumi	;
 JCASS_0389      	179.01      	0.00403     	CassaccoInt._consumi	;
 JCASS_0390      	181.22      	0.00403     	CassaccoInt._consumi	;
 JCASS_0391      	179.55      	0.00403     	CassaccoInt._consumi	;
 JCASS_0392      	179.99      	0.00403     	CassaccoInt._consumi	;
 JCASS_0393      	176.25      	0.00403     	CassaccoInt._consumi	;
 JCASS_0394      	179.90      	0.00403     	CassaccoInt._consumi	;
 JCASS_0395      	179.39      	0.00403     	CassaccoInt._consumi	;
 JCASS_0396      	177.44      	0.00403     	CassaccoInt._consumi	;
 JCASS_0397      	185.09      	0.00403     	CassaccoInt._consumi	;
 JCASS_0398      	184.88      	0.00403     	CassaccoInt._consumi	;
 JCASS_0399      	184.88      	0.00403     	CassaccoInt._consumi	;
 JCASS_0400      	183.87      	0.00403     	CassaccoInt._consumi	;
 JCASS_0401      	185.52      	0.00403     	CassaccoInt._consumi	;
 JCASS_0402      	185.52      	0.00403     	CassaccoInt._consumi	;
 JCASS_0403      	196.54      	0.00403     	CassaccoInt._consumi	;
 JCASS_0404      	182.44      	0.00403     	CassaccoInt._consumi	;
 JCASS_0405      	180.05      	0.00403     	CassaccoInt._consumi	;
 JCASS_0406      	179.12      	0.00403     	CassaccoInt._consumi	;
 JCASS_0407      	179.87      	0.00403     	CassaccoInt._consumi	;
 JCASS_0408      	196.44      	0.00403     	CassaccoInt._consumi	;
 JCASS_0409      	182.98      	0.00403     	CassaccoInt._consumi	;
 JCASS_0410      	195.91      	0.00403     	CassaccoInt._consumi	;
 JCASS_0411      	224.00      	0.00613     	CassaccoPens._consumi	;
 JCASS_0412      	207.12      	0.00613     	CassaccoPens._consumi	;
 JCASS_0413      	244.86      	0           	                	;
 JCASS_0414      	226.39      	0.00613     	CassaccoPens._consumi	;
 JCASS_0415      	200.72      	0.00613     	CassaccoPens._consumi	;
 JCASS_0416      	218.87      	0.00403     	CassaccoInt._consumi	;
 JCASS_0417      	219.73      	0.00403     	CassaccoInt._consumi	;Rilevati 2.6-2.7 bar fontana
 JCASS_0418      	199.52      	0.00403     	CassaccoInt._consumi	;
 JCASS_0419      	201.06      	0.00403     	CassaccoInt._consumi	;
 JCASS_0420      	181.96      	0.00403     	CassaccoInt._consumi	;
 JCASS_0421      	191.39      	0.00403     	CassaccoInt._consumi	;

[RESERVOIRS]
;ID              	Head        	Pattern         
 Res_CASS_pens   	256.82      	                	;
 Res_CASS_int    	247.69      	                	;

[TANKS]
;ID              	Elevation   	InitLevel   	MinLevel    	MaxLevel    	Diameter    	MinVol      	VolCurve        	Overflow

[PIPES]
;ID              	Node1           	Node2           	Length      	Diameter    	Roughness   	MinorLoss   	Status
 PCASS_0001      	JCASS_0050      	JCASS_0034      	46.24       	25          	120         	0           	Open  	;ACC_DN25
 PCASS_0002      	JCASS_0050      	JCASS_0041      	23.52       	75          	120         	0           	Open  	;P.E._DN75
 PCASS_0003      	JCASS_0126      	JCASS_0127      	22.26       	25          	120         	0           	Open  	;ACC_DN25
 PCASS_0004      	JCASS_0134      	JCASS_0126      	28.92       	80          	120         	0           	Open  	;ACC_DN80
 PCASS_0005      	JCASS_0021      	JCASS_0019      	42.85       	20          	120         	0           	Open  	;ACC_DN20
 PCASS_0006      	JCASS_0351      	JCASS_0360      	102.96      	80          	120         	0           	Open  	;ACC_DN80
 PCASS_0007      	JCASS_0309      	JCASS_0311      	6.33        	65          	120         	0           	Open  	;ACC_DN65