[TITLE]


[JUNCTIONS]
;ID              	Elev        	Demand      	Pattern         
 JTAR_0001       	238.3       	0.001       	                	;
 JTAR_0002       	227.97      	0.00348     	ConsTarc-Lon_(09lug20)	;
 JTAR_0003       	208.63      	0.00348     	ConsTarc-Lon_(09lug20)	;
 JTAR_0004       	227.91      	0.00348     	ConsTarc-Lon_(09lug20)	;
 JTAR_0005       	225.22      	0.00348     	ConsTarc-Lon_(09lug20)	;
 JTAR_0006       	238.67      	0.00348     	ConsTarc-Lon_(09lug20)	;
 JTAR_0007       	199.88      	0.00348     	ConsTarc-Lon_(09lug20)	;
 JTAR_0008       	230.24      	0.00348     	ConsTarc-Lon_(09lug20)	;
 JTAR_0009       	223.71      	0.00348     	ConsTarc-Lon_(09lug20)	;
 JTAR_0010       	233.04      	0.00348     	ConsTarc-Lon_(09lug20)	;
 JTAR_0011       	230.34      	0.00348     	ConsTarc-Lon_(09lug20)	;
 JTAR_0013       	201.70      	0.00348     	ConsTarc-Lon_(09lug20)	;
 JTAR_0014       	228.70      	0.00348     	ConsTarc-Lon_(09lug20)	;
 JTAR_0015       	206.61      	0.00348     	ConsTarc-Lon_(09lug20)	;
 JTAR_0016       	217.70      	0.00348     	ConsTarc-Lon_(09lug20)	;
 JTAR_0017       	209.47      	0.00348     	ConsTarc-Lon_(09lug20)	;
 JTAR_0018       	209.78      	0.00348     	ConsTarc-Lon_(09lug20)	;
 JTAR_0019       	217.75      	0.00348     	ConsTarc-Lon_(09lug20)	;
 JTAR_0020       	229.42      	0.00348     	ConsTarc-Lon_(09lug20)	;
 JTAR_0021       	201.63      	0.01695     	SerbSegna_uscSegn_(24lug20)	;
 JTAR_0022       	198.87      	0.01695     	SerbSegna_uscSegn_(24lug20)	;
 JTAR_0023       	205.13      	0.00348     	ConsTarc-Lon_(09lug20)	;
 JTAR_0024       	206.80      	0.00348     	ConsTarc-Lon_(09lug20)	;
 JTAR_0025       	197.03      	0.01695     	SerbSegna_uscSegn_(24lug20)	;
 JTAR_0026       	189.77      	0.01695     	SerbSegna_uscSegn_(24lug20)	;
 JTAR_0027       	191.75      	0.01695     	SerbSegna_uscSegn_(24lug20)	;
 JTAR_0028       	206.73      	0.00348     	ConsTarc-Lon_(09lug20)	;
 JTAR_0029       	209.06      	0.01695     	SerbSegna_uscSegn_(24lug20)	;
 JTAR_0030       	190.78      	0.01695     	SerbSegna_uscSegn_(24lug20)	;
 JTAR_0031       	190.69      	0.01695     	SerbSegna_uscSegn_(24lug20)	;
 JTAR_0032       	190.42      	0.01695     	SerbSegna_uscSegn_(24lug20)	;
 JTAR_0033       	209.33      	0.00348     	ConsTarc-Lon_(09lug20)	;
 JTAR_0034       	206.33      	0.01695     	SerbSegna_uscSegn_(24lug20)	;
 JTAR_0035       	209.94      	0.01695     	SerbSegna_uscSegn_(24lug20)	;
 JTAR_0036       	210.20      	0.01695     	SerbSegna_uscSegn_(24lug20)	;
 JTAR_0037       	206.37      	0.00348     	ConsTarc-Lon_(09lug20)	;
 JTAR_0038       	207.56      	0.01695     	SerbSegna_uscSegn_(24lug20)	;
 JTAR_0039       	189.39      	0.01695     	SerbSegna_uscSegn_(24lug20)	;
 JTAR_0041       	206.42      	0.00348     	ConsTarc-Lon_(09lug20)	;
 JTAR_0042       	205.74      	0.01695     	SerbSegna_uscSegn_(24lug20)	;
 JTAR_0043       	209.14      	0.00348     	ConsTarc-Lon_(09lug20)	;
 JTAR_0044       	188.71      	0.01695     	SerbSegna_uscSegn_(24lug20)	;
 JTAR_0045       	213.32      	0.00348     	ConsTarc-Lon_(09lug20)	;
 JTAR_0046       	207.18      	0.00348     	ConsTarc-Lon_(09lug20)	;
 JTAR_0048       	191.23      	0.01695     	SerbSegna_uscSegn_(24lug20)	;
 JTAR_0049       	200.57      	0.01695     	SerbSegna_uscSegn_(24lug20)	;
 JTAR_0050       	207.33      	0.00348     	ConsTarc-Lon_(09lug20)	;
 JTAR_0051       	208.04      	0.00348     	ConsTarc-Lon_(09lug20)	;
 JTAR_0052       	205.03      	0.00348     	ConsTarc-Lon_(09lug20)	;
 JTAR_0053       	190.19      	0.01695     	SerbSegna_uscSegn_(24lug20)	;
 JTAR_0054       	193.53      	0.01695     	SerbSegna_uscSegn_(24lug20)	;
 JTAR_0055       	192.90      	0.01695     	SerbSegna_uscSegn_(24lug20)	;
 JTAR_0056       	196.36      	0.01695     	SerbSegna_uscSegn_(24lug20)	;
 JTAR_0057       	195.53      	0.01695     	SerbSegna_uscSegn_(24lug20)	;
 JTAR_0058       	210.00      	0.00348     	ConsTarc-Lon_(09lug20)	;
 JTAR_0059       	201.88      	0.01695     	SerbSegna_uscSegn_(24lug20)	;
 JTAR_0060       	212.43      	0.00348     	ConsTarc-Lon_(09lug20)	;
 JTAR_0061       	196.00      	0.01695     	SerbSegna_uscSegn_(24lug20)	;
 JTAR_0062       	194.89      	0.01695     	SerbSegna_uscSegn_(24lug20)	;
 JTAR_0063       	194.65      	0.01695     	SerbSegna_uscSegn_(24lug20)	;
 JTAR_0064       	212.45      	0.00348     	ConsTarc-Lon_(09lug20)	;
 JTAR_0065       	215.48      	0.00348     	ConsTarc-Lon_(09lug20)	;
 JTAR_0066       	210.18      	0.00348     	ConsTarc-Lon_(09lug20)	;
 JTAR_0067       	197.20      	0.01695     	SerbSegna_uscSegn_(24lug20)	;
 JTAR_0068       	197.26      	0.01695     	SerbSegna_uscSegn_(24lug20)	;
 JTAR_0069       	194.14      	0.01695     	SerbSegna_uscSegn_(24lug20)	;
 JTAR_0070       	192.79      	0.01695     	SerbSegna_uscSegn_(24lug20)	;
 JTAR_0071       	191.54      	0.01695     	SerbSegna_uscSegn_(24lug20)	;
 JTAR_0072       	206.01      	0.00348     	ConsTarc-Lon_(09lug20)	;
 JTAR_0074       	210.77      	0.00348     	ConsTarc-Lon_(09lug20)	;
 JTAR_0075       	210.88      	0.00348     	ConsTarc-Lon_(09lug20)	;
 JTAR_0076       	210.79      	0.00348     	ConsTarc-Lon_(09lug20)	;
 JTAR_0077       	217.88      	0.00348     	ConsTarc-Lon_(09lug20)	;
 JTAR_0078       	214.14      	0.00348     	ConsTarc-Lon_(09lug20)	;
 JTAR_0079       	199.32      	0.01695     	SerbSegna_uscSegn_(24lug20)	;
 JTAR_0080       	222.36      	0.00348     	ConsTarc-Lon_(09lug20)	;
 JTAR_0081       	212.38      	0.00348     	ConsTarc-Lon_(09lug20)	;
 JTAR_0082       	194.90      	0.01695     	SerbSegna_uscSegn_(24lug20)	;
 JTAR_0083       	214.03      	0.00348     	ConsTarc-Lon_(09lug20)	;
 JTAR_0084       	222.71      	0.00348     	ConsTarc-Lon_(09lug20)	;
 JTAR_0085       	219.79      	0.00348     	ConsTarc-Lon_(09lug20)	;
 JTAR_0086       	216.67      	0.00348     	ConsTarc-Lon_(09lug20)	;
 JTAR_0087       	211.94      	0.00348     	ConsTarc-Lon_(09lug20)	;
 JTAR_0088       	212.47      	0.00348     	ConsTarc-Lon_(09lug20)	;
 JTAR_0089       	192.07      	0.01695     	SerbSegna_uscSegn_(24lug20)	;
 JTAR_0090       	214.00      	0.00348     	ConsTarc-Lon_(09lug20)	;
 JTAR_0091       	223.27      	0.00348     	ConsTarc-Lon_(09lug20)	;
 JTAR_0093       	212.88      	0.00348     	ConsTarc-Lon_(09lug20)	;
 JTAR_0094       	212.54      	0.00348     	ConsTarc-Lon_(09lug20)	;
 JTAR_0095       	204.51      	0.01695     	SerbSegna_uscSegn_(24lug20)	;
 JTAR_0096       	213.46      	0.00348     	ConsTarc-Lon_(09lug20)	;
 JTAR_0097       	212.24      	0.00348     	ConsTarc-Lon_(09lug20)	;
 JTAR_0098       	214.69      	0.00348     	ConsTarc-Lon_(09lug20)	;
 JTAR_0099       	220.35      	0.00348     	ConsTarc-Lon_(09lug20)	;
 JTAR_0100       	216.37      	0.00348     	ConsTarc-Lon_(09lug20)	;
 JTAR_0101       	215.24      	0.00348     	ConsTarc-Lon_(09lug20)	;
 JTAR_0102       	212.00      	0.01695     	SerbSegna_uscSegn_(24lug20)	;
 JTAR_0103       	222.18      	0.00348     	ConsTarc-Lon_(09lug20)	;
 JTAR_0104       	215.38      	0.00348     	ConsTarc-Lon_(09lug20)	;
 JTAR_0105       	219.69      	0.00348     	ConsTarc-Lon_(09lug20)	;
 JTAR_0106       	215.99      	0.00348     	ConsTarc-Lon_(09lug20)	;
 JTAR_0107       	243.65      	0.00348     	ConsTarc-Lon_(09lug20)	;
 JTAR_0108       	216.74      	0.00348     	ConsTarc-Lon_(09lug20)	;
 JTAR_0109       	217.78      	0.00348     	ConsTarc-Lon_(09lug20)	;
 JTAR_0110       	216.16      	0.00348     	ConsTarc-Lon_(09lug20)	;
 JTAR_0111       	216.70      	0.00348     	ConsTarc-Lon_(09lug20)	;
 JTAR_0112       	214.64      	0.00348     	ConsTarc-Lon_(09lug20)	;
 JTAR_0113       	219.39      	0.00348     	ConsTarc-Lon_(09lug20)	;
 JTAR_0114       	213.57      	0.00348     	ConsTarc-Lon_(09lug20)	;
 JTAR_0115       	217.01      	0.00348     	ConsTarc-Lon_(09lug20)	;
 JTAR_0116       	217.46      	0.00348     	ConsTarc-Lon_(09lug20)	;
 JTAR_0117       	225.20      	0.00348     	ConsTarc-Lon_(09lug20)	;
 JTAR_0118       	215.07      	0.00348     	ConsTarc-Lon_(09lug20)	;
 JTAR_0119       	218.17      	0.00348     	ConsTarc-Lon_(09lug20)	;
 JTAR_0120       	217.29      	0.00348     	ConsTarc-Lon_(09lug20)	;
 JTAR_0121       	221.33      	0.00348     	ConsTarc-Lon_(09lug20)	;
 JTAR_0122       	232.16      	0.01695     	SerbSegna_uscSegn_(24lug20)	;
 JTAR_0124       	215.16      	0.00348     	ConsTarc-Lon_(09lug20)	;
 JTAR_0125       	215.71      	0.00348     	ConsTarc-Lon_(09lug20)	;
 JTAR_0126       	235.77      	0.01695     	SerbSegna_uscSegn_(24lug20)	;
 JTAR_0127       	218.18      	0.00348     	ConsTarc-Lon_(09lug20)	;
 JTAR_0128       	214.76      	0.00348     	ConsTarc-Lon_(09lug20)	;
 JTAR_0129       	221.63      	0.00348     	ConsTarc-Lon_(09lug20)	;
 JTAR_0130       	223.92      	0.00348     	ConsTarc-Lon_(09lug20)	;
 JTAR_0131       	225.25      	0.00348     	ConsTarc-Lon_(09lug20)	;
 JTAR_0132       	233.21      	0.01695     	SerbSegna_uscSegn_(24lug20)	;
 JTAR_0134       	237.77      	0.01695     	SerbSegna_uscSegn_(24lug20)	;
 JTAR_0135       	214.91      	0.00348     	ConsTarc-Lon_(09lug20)	;
 JTAR_0136       	216.07      	0.00348     	ConsTarc-Lon_(09lug20)	;
 JTAR_0137       	215.47      	0.00348     	ConsTarc-Lon_(09lug20)	;
 JTAR_0138       	235.29      	0.01695     	SerbSegna_uscSegn_(24lug20)	;
 JTAR_0139       	235.39      	0.01695     	SerbSegna_uscSegn_(24lug20)	;
 JTAR_0140       	216.65      	0.00348     	ConsTarc-Lon_(09lug20)	;
 JTAR_0142       	218.03      	0.00348     	ConsTarc-Lon_(09lug20)	;
 JTAR_0144       	219.07      	0.00348     	ConsTarc-Lon_(09lug20)	;
 JTAR_0145       	219.91      	0.00348     	ConsTarc-Lon_(09lug20)	;
 JTAR_0146       	285.98      	0           	                	;
 JTAR_0147       	240.33      	0.01695     	SerbSegna_uscSegn_(24lug20)	;
 JTAR_0148       	222.22      	0.00348     	ConsTarc-Lon_(09lug20)	;
 JTAR_0149       	220.19      	0.00348     	ConsTarc-Lon_(09lug20)	;
 JTAR_0150       	219.91      	0.00348     	ConsTarc-Lon_(09lug20)	;
 JTAR_0151       	220.14      	0.00348     	ConsTarc-Lon_(09lug20)	;
 JTAR_0152       	220.14      	0.00348     	ConsTarc-Lon_(09lug20)	;
 JTAR_0153       	235.37      	0.01695     	SerbSegna_uscSegn_(24lug20)	;
 JTAR_0154       	217.28      	0.00348     	ConsTarc-Lon_(09lug20)	;
 JTAR_0155       	242.88      	0.01695     	SerbSegna_uscSegn_(24lug20)	;
 JTAR_0156       	243.89      	0.01695     	SerbSegna_uscSegn_(24lug20)	;
 JTAR_0157       	220.75      	0.00348     	ConsTarc-Lon_(09lug20)	;
 JTAR_0158       	237.28      	0.01695     	SerbSegna_uscSegn_(24lug20)	;
 JTAR_0159       	221.52      	0.00348     	ConsTarc-Lon_(09lug20)	;
 JTAR_0160       	221.16      	0.04348     	ConsumiLoneriacco_(11lug20)	;
 JTAR_0161       	217.69      	0.00348     	ConsTarc-Lon_(09lug20)	;
 JTAR_0162       	216.54      	0.00348     	ConsTarc-Lon_(09lug20)	;
 JTAR_0163       	242.86      	0.01695     	SerbSegna_uscSegn_(24lug20)	;
 JTAR_0164       	245.17      	0.01695     	SerbSegna_uscSegn_(24lug20)	;
 JTAR_0165       	219.50      	0.00348     	ConsTarc-Lon_(09lug20)	;
 JTAR_0166       	220.19      	0.00348     	ConsTarc-Lon_(09lug20)	;
 JTAR_0168       	222.38      	0.00348     	ConsTarc-Lon_(09lug20)	;
 JTAR_0169       	225.41      	0.00348     	ConsTarc-Lon_(09lug20)	;
 JTAR_0170       	224.97      	0.00348     	ConsTarc-Lon_(09lug20)	;
 JTAR_0171       	223.30      	0.00348     	ConsTarc-Lon_(09lug20)	;
 JTAR_0172       	224.55      	0.00348     	ConsTarc-Lon_(09lug20)	;
 JTAR_0173       	227.97      	0.01695     	SerbSegna_uscSegn_(24lug20)	;
 JTAR_0174       	256.00      	0.01695     	SerbSegna_uscSegn_(24lug20)	;
 JTAR_0175       	218.80      	0.00348     	ConsTarc-Lon_(09lug20)	;
 JTAR_0176       	240.63      	0.01695     	SerbSegna_uscSegn_(24lug20)	;
 JTAR_0177       	244.92      	0.01695     	SerbSegna_uscSegn_(24lug20)	;
 JTAR_0178       	212.94      	0.01695     	SerbSegna_uscSegn_(24lug20)	;
 JTAR_0179       	221.22      	0.00348     	ConsTarc-Lon_(09lug20)	;
 JTAR_0180       	268.93      	0.001       	                	;
 JTAR_0181       	222.46      	0.00348     	ConsTarc-Lon_(09lug20)	;
 JTAR_0182       	223.52      	0.00348     	ConsTarc-Lon_(09lug20)	;
 JTAR_0183       	221.57      	0.00348     	ConsTarc-Lon_(09lug20)	;
 JTAR_0184       	277.42      	0.00348     	ConsTarc-Lon_(09lug20)	;
 JTAR_0185       	239.87      	0.01695     	SerbSegna_uscSegn_(24lug20)	;
 JTAR_0186       	244.97      	0.001       	                	;
 JTAR_0187       	224.69      	0.00348     	ConsTarc-Lon_(09lug20)	;
 JTAR_0188       	224.69      	0.00348     	ConsTarc-Lon_(09lug20)	;
 JTAR_0189       	244.10      	0.001       	                	;
 JTAR_0190       	229.00      	0.00348     	ConsTarc-Lon_(09lug20)	;
 JTAR_0191       	216.86      	0.00348     	ConsTarc-Lon_(09lug20)	;
 JTAR_0192       	216.86      	0.00348     	ConsTarc-Lon_(09lug20)	;
 JTAR_0193       	225.24      	0.00348     	ConsTarc-Lon_(09lug20)	;
 JTAR_0194       	216.81      	0.00348     	ConsTarc-Lon_(09lug20)	;
 JTAR_0195       	220.07      	0.00348     	ConsTarc-Lon_(09lug20)	;
 JTAR_0196       	227.33      	0.00348     	ConsTarc-Lon_(09lug20)	;
 JTAR_0197       	255.98      	0.00348     	ConsTarc-Lon_(09lug20)	;
 JTAR_0198       	259.81      	0.00348     	ConsTarc-Lon_(09lug20)	;
 JTAR_0199       	233.95      	0.00348     	ConsTarc-Lon_(09lug20)	;
 JTAR_0200       	223.63      	0.00348     	ConsTarc-Lon_(09lug20)	;
 JTAR_0201       	246.22      	0.00348     	ConsTarc-Lon_(09lug20)	;
 JTAR_0202       	237.12      	0.00348     	ConsTarc-Lon_(09lug20)	;
 JTAR_0203       	255.93      	0.00348     	ConsTarc-Lon_(09lug20)	;
 JTAR_0204       	239.80      	0.001       	                	;
 JTAR_0205       	225.35      	0.00348     	ConsTarc-Lon_(09lug20)	;
 JTAR_0206       	226.39      	0.00348     	ConsTarc-Lon_(09lug20)	;
 JTAR_0207       	240.52      	0.00348     	ConsTarc-Lon_(09lug20)	;
 JTAR_0208       	229.98      	0.00348     	ConsTarc-Lon_(09lug20)	;
 JTAR_0209       	238.59      	0.00348     	ConsTarc-Lon_(09lug20)	;
 JTAR_0210       	240.58      	0.00348     	ConsTarc-Lon_(09lug20)	;
 JTAR_0211       	223.54      	0.00348     	ConsTarc-Lon_(09lug20)	;
 JTAR_0212       	226.03      	0.00348     	ConsTarc-Lon_(09lug20)	;
 JTAR_0213       	244.66      	0.01695     	SerbSegna_uscSegn_(24lug20)	;
 JTAR_0214       	244.21      	0.001       	                	;
 JTAR_0215       	226.24      	0.00348     	ConsTarc-Lon_(09lug20)	;
 JTAR_0216       	241.01      	0.00348     	ConsTarc-Lon_(09lug20)	;
 JTAR_0217       	217.41      	0.00348     	ConsTarc-Lon_(09lug20)	;
 JTAR_0218       	225.81      	0.00348     	ConsTarc-Lon_(09lug20)	;
 JTAR_0219       	239.45      	0.00348     	ConsTarc-Lon_(09lug20)	;
 JTAR_0220       	236.38      	0.00348     	ConsTarc-Lon_(09lug20)	;
 JTAR_0221       	209.26      	0.00348     	ConsTarc-Lon_(09lug20)	;
 JTAR_0222       	239.34      	0.00348     	ConsTarc-Lon_(09lug20)	;
 JTAR_0223       	239.14      	0.00348     	ConsTarc-Lon_(09lug20)	;
 JTAR_0224       	229.52      	0.01695     	SerbSegna_uscSegn_(24lug20)	;
 JTAR_0225       	232.49      	0.00348     	ConsTarc-Lon_(09lug20)	;
 JTAR_0226       	238.96      	0.00348     	ConsTarc-Lon_(09lug20)	;
 JTAR_0227       	226.47      	0.00348     	ConsTarc-Lon_(09lug20)	;
 JTAR_0228       	226.01      	0.00348     	ConsTarc-Lon_(09lug20)	;
 JTAR_0229       	226.70      	0.00348     	ConsTarc-Lon_(09lug20)	;
 JTAR_0230       	230.94      	0.00348     	ConsTarc-Lon_(09lug20)	;
 JTAR_0231       	231.32      	0.00348     	ConsTarc-Lon_(09lug20)	;
 JTAR_0232       	232.76      	0.00348     	ConsTarc-Lon_(09lug20)	;
 JTAR_0233       	231.10      	0.00348     	ConsTarc-Lon_(09lug20)	;
 JTAR_0234       	235.84      	0.00348     	ConsTarc-Lon_(09lug20)	;
 JTAR_0235       	229.69      	0.00348     	ConsTarc-Lon_(09lug20)	;
 JTAR_0236       	224.51      	0.00348     	ConsTarc-Lon_(09lug20)	;
 JTAR_0237       	226.13      	0.00348     	ConsTarc-Lon_(09lug20)	;
 JTAR_0238       	232.84      	0.00348     	ConsTarc-Lon_(09lug20)	;
 JTAR_0239       	220.82      	0.00348     	ConsTarc-Lon_(09lug20)	;
 JTAR_0240       	228.57      	0.00348     	ConsTarc-Lon_(09lug20)	;
 JTAR_0241       	220.71      	0.00348     	ConsTarc-Lon_(09lug20)	;
 JTAR_0242       	228.67      	0.00348     	ConsTarc-Lon_(09lug20)	;
 JTAR_0243       	227.23      	0.00348     	ConsTarc-Lon_(09lug20)	;
 JTAR_0244       	215.77      	0.00348     	ConsTarc-Lon_(09lug20)	;
 JTAR_0245       	220.25      	0.00348     	ConsTarc-Lon_(09lug20)	;
 JTAR_0246       	226.14      	0.00348     	ConsTarc-Lon_(09lug20)	;
 JTAR_0247       	226.09      	0.00348     	ConsTarc-Lon_(09lug20)	;
 JTAR_0248       	231.76      	0.00348     	ConsTarc-Lon_(09lug20)	;
 JTAR_0249       	223.74      	0.00348     	ConsTarc-Lon_(09lug20)	;
 JTAR_0250       	224.81      	0.00348     	ConsTarc-Lon_(09lug20)	;
 JTAR_0251       	221.80      	0.04348     	ConsumiLoneriacco_(11lug20)	;
 JTAR_0252       	233.44      	0.00348     	ConsTarc-Lon_(09lug20)	;
 JTAR_0253       	225.71      	0.00348     	ConsTarc-Lon_(09lug20)	;
 JTAR_0254       	223.74      	0.00348     	ConsTarc-Lon_(09lug20)	;
 JTAR_0255       	210.65      	0.01695     	SerbSegna_uscSegn_(24lug20)	;
 JTAR_0256       	234.90      	0.00348     	ConsTarc-Lon_(09lug20)	;
 JTAR_0257       	244.52      	0.00348     	ConsTarc-Lon_(09lug20)	;
 JTAR_0258       	225.64      	0.00348     	ConsTarc-Lon_(09lug20)	;
 JTAR_0259       	221.66      	0.00348     	ConsTarc-Lon_(09lug20)	;
 JTAR_0260       	209.73      	0.00348     	ConsTarc-Lon_(09lug20)	;
 JTAR_0261       	232.06      	0.04348     	ConsumiLoneriacco_(11lug20)	;
 JTAR_0262       	221.26      	0.00348     	ConsTarc-Lon_(09lug20)	;
 JTAR_0263       	232.95      	0.00348     	ConsTarc-Lon_(09lug20)	;
 JTAR_0264       	219.89      	0.00348     	ConsTarc-Lon_(09lug20)	;
 JTAR_0265       	218.97      	0.00348     	ConsTarc-Lon_(09lug20)	;
 JTAR_0266       	218.97      	0.00348     	ConsTarc-Lon_(09lug20)	;
 JTAR_0267       	231.82      	0.00348     	ConsTarc-Lon_(09lug20)	;
 JTAR_0268       	245.83      	0.00348     	ConsTarc-Lon_(09lug20)	;
 JTAR_0269       	208.82      	0.00348     	ConsTarc-Lon_(09lug20)	;
 JTAR_0270       	219.69      	0.00348     	ConsTarc-Lon_(09lug20)	;
 JTAR_0271       	234.72      	0.00348     	ConsTarc-Lon_(09lug20)	;
 JTAR_0272       	242.15      	0.00348     	ConsTarc-Lon_(09lug20)	;
 JTAR_0273       	225.42      	0.00348     	ConsTarc-Lon_(09lug20)	;
 JTAR_0274       	208.15      	0.00348     	ConsTarc-Lon_(09lug20)	;
 JTAR_0275       	234.03      	0.00348     	ConsTarc-Lon_(09lug20)	;
 JTAR_0276       	238.64      	0.04348     	ConsumiLoneriacco_(11lug20)	;
 JTAR_0277       	248.36      	0.00348     	ConsTarc-Lon_(09lug20)	;
 JTAR_0278       	208.43      	0.00348     	ConsTarc-Lon_(09lug20)	;
 JTAR_0279       	218.93      	0.00348     	ConsTarc-Lon_(09lug20)	;
 JTAR_0280       	238.42      	0.04348     	ConsumiLoneriacco_(11lug20)	;
 JTAR_0281       	231.62      	0.00348     	ConsTarc-Lon_(09lug20)	;
 JTAR_0282       	206.84      	0.00348     	ConsTarc-Lon_(09lug20)	;
 JTAR_0284       	207.01      	0.00348     	ConsTarc-Lon_(09lug20)	;
 JTAR_0285       	241.04      	0.00348     	ConsTarc-Lon_(09lug20)	;
 JTAR_0286       	221.40      	0.04348     	ConsumiLoneriacco_(11lug20)	;
 JTAR_0287       	214.55      	0.00348     	ConsTarc-Lon_(09lug20)	;
 JTAR_0288       	228.86      	0.04348     	ConsumiLoneriacco_(11lug20)	;
 JTAR_0289       	206.36      	0.00348     	ConsTarc-Lon_(09lug20)	;
 JTAR_0290       	234.35      	0.04348     	ConsumiLoneriacco_(11lug20)	;
 JTAR_0291       	204.59      	0.00348     	ConsTarc-Lon_(09lug20)	;
 JTAR_0292       	213.57      	0.00348     	ConsTarc-Lon_(09lug20)	;
 JTAR_0293       	208.85      	0.00348     	ConsTarc-Lon_(09lug20)	;
 JTAR_0294       	208.68      	0.00348     	ConsTarc-Lon_(09lug20)	;
 JTAR_0295       	209.52      	0.00348     	ConsTarc-Lon_(09lug20)	;
 JTAR_0297       	205.56      	0.00348     	ConsTarc-Lon_(09lug20)	;
 JTAR_0298       	254.33      	0.00348     	ConsTarc-Lon_(09lug20)	;
 JTAR_0299       	223.68      	0.00348     	ConsTarc-Lon_(09lug20)	;
 JTAR_0300       	204.82      	0.00348     	ConsTarc-Lon_(09lug20)	;
 JTAR_0301       	206.28      	0.00348     	ConsTarc-Lon_(09lug20)	;
 JTAR_0303       	253.85      	0.00348     	ConsTarc-Lon_(09lug20)	;
 JTAR_0304       	205.09      	0.00348     	ConsTarc-Lon_(09lug20)	;
 JTAR_0305       	205.09      	0.00348     	ConsTarc-Lon_(09lug20)	;
 JTAR_0306       	204.98      	0.00348     	ConsTarc-Lon_(09lug20)	;
 JTAR_0307       	264.30      	0.00348     	ConsTarc-Lon_(09lug20)	;
 JTAR_0308       	238.52      	0.00348     	ConsTarc-Lon_(09lug20)	;
 JTAR_0309       	230.24      	0.04348     	ConsumiLoneriacco_(11lug20)	;
 JTAR_0310       	206.76      	0.00348     	ConsTarc-Lon_(09lug20)	;
 JTAR_0311       	209.49      	0.00348     	ConsTarc-Lon_(09lug20)	;
 JTAR_0312       	259.08      	0.00348     	ConsTarc-Lon_(09lug20)	;
 JTAR_0314       	264.54      	0.00348     	ConsTarc-Lon_(09lug20)	;
 JTAR_0315       	208.01      	0.00348     	ConsTarc-Lon_(09lug20)	;
 JTAR_0316       	237.89      	0.00348     	ConsTarc-Lon_(09lug20)	;
 JTAR_0317       	207.59      	0.00348     	ConsTarc-Lon_(09lug20)	;
 JTAR_0318       	231.80      	0.04348     	ConsumiLoneriacco_(11lug20)	;
 JTAR_0319       	207.04      	0.00348     	ConsTarc-Lon_(09lug20)	;
 JTAR_0320       	244.71      	0.04348     	ConsumiLoneriacco_(11lug20)	;
 JTAR_0321       	262.08      	0.00348     	ConsTarc-Lon_(09lug20)	;
 JTAR_0322       	263.30      	0.00348     	ConsTarc-Lon_(09lug20)	;
 JTAR_0323       	262.27      	0.00348     	ConsTarc-Lon_(09lug20)	;
 JTAR_0324       	263.01      	0.00348     	ConsTarc-Lon_(09lug20)	;
 JTAR_0325       	261.16      	0.00348     	ConsTarc-Lon_(09lug20)	;
 JTAR_0326       	210.64      	0.00348     	ConsTarc-Lon_(09lug20)	;
 JTAR_0327       	263.14      	0.00348     	ConsTarc-Lon_(09lug20)	;
 JTAR_0328       	263.28      	0.00348     	ConsTarc-Lon_(09lug20)	;
 JTAR_0329       	265.96      	0.00348     	ConsTarc-Lon_(09lug20)	;
 JTAR_0330       	206.09      	0.00348     	ConsTarc-Lon_(09lug20)	;
 JTAR_0331       	236.38      	0.04348     	ConsumiLoneriacco_(11lug20)	;
 JTAR_0332       	216.66      	0.00348     	ConsTarc-Lon_(09lug20)	;
 JTAR_0333       	238.82      	0.04348     	ConsumiLoneriacco_(11lug20)	;
 JTAR_0334       	237.29      	0.04348     	ConsumiLoneriacco_(11lug20)	;
 JTAR_0335       	265.43      	0.00348     	ConsTarc-Lon_(09lug20)	;
 JTAR_0336       	266.30      	0.00348     	ConsTarc-Lon_(09lug20)	;
 JTAR_0337       	239.32      	0.04348     	ConsumiLoneriacco_(11lug20)	;
 JTAR_0338       	236.80      	0.04348     	ConsumiLoneriacco_(11lug20)	;
 JTAR_0339       	240.50      	0.04348     	ConsumiLoneriacco_(11lug20)	;
 JTAR_0340       	267.41      	0.00348     	ConsTarc-Lon_(09lug20)	;
 JTAR_0341       	235.94      	0.04348     	ConsumiLoneriacco_(11lug20)	;
 JTAR_0342       	251.42      	0.04348     	ConsumiLoneriacco_(11lug20)	;
 JTAR_0345       	269.00      	0.00348     	ConsTarc-Lon_(09lug20)	;
 JTAR_0346       	212.20      	0.00348     	ConsTarc-Lon_(09lug20)	;
 JTAR_0347       	228.07      	0.04348     	ConsumiLoneriacco_(11lug20)	;
 JTAR_0348       	202.40      	0.00348     	ConsTarc-Lon_(09lug20)	;
 JTAR_0349       	202.87      	0.00348     	ConsTarc-Lon_(09lug20)	;
 JTAR_0351       	237.86      	0.04348     	ConsumiLoneriacco_(11lug20)	;
 JTAR_0352       	254.29      	0.04348     	ConsumiLoneriacco_(11lug20)	;
 JTAR_0353       	274.18      	0.00348     	ConsTarc-Lon_(09lug20)	;
 JTAR_0354       	248.47      	0.00348     	ConsTarc-Lon_(09lug20)	;
 JTAR_0355       	201.36      	0.00348     	ConsTarc-Lon_(09lug20)	;
 JTAR_0356       	227.47      	0.00348     	ConsTarc-Lon_(09lug20)	;
 JTAR_0357       	274.05      	0.00348     	ConsTarc-Lon_(09lug20)	;
 JTAR_0359       	241.53      	0.04348     	ConsumiLoneriacco_(11lug20)	;
 JTAR_0360       	292.44      	0           	                	;
 JTAR_0365       	194.78      	0.00348     	ConsTarc-Lon_(09lug20)	;
 JTAR_0366       	238.3       	0           	                	;
 JTAR_0368       	268.61      	0           	                	;
 JTAR_0369       	285.98      	0           	                	;
 JTAR_0370       	281.45      	0           	                	;Punto calibrazione
 JVNA_0021       	186.22      	0           	                	;
 JVNA_0022       	187.69      	0           	                	;
 JVNA_0023       	221.12      	0           	                	;
 JVNA_0024       	283.86      	0           	                	;
 JVNA_0025       	285.73      	0           	                	;
 JVNA_0026       	285.73      	0           	                	;
 JTAR_0371       	235.45      	0.0348      	                	;
 JTAR_0372       	242         	0           	                	;
 NodoCiseriis    	293         	-1          	SerbLucch_ingr_(09lug20)	;
 JMAG_0001       	211.72      	0.0313      	Cons_Collerumiz_B	;
 JMAG_0002       	196.13      	0.0313      	Cons_Collerumiz_B	;
 JMAG_0003       	211.22      	0.0313      	Cons_Collerumiz_B	;
 JMAG_0004       	184.88      	0.0313      	Cons_Collerumiz_B	;
 JMAG_0005       	191.80      	0.0313      	Cons_Collerumiz_B	;
 JMAG_0006       	200.31      	0.0313      	Cons_Collerumiz_B	;
 JMAG_0008       	191.50      	0.0313      	Cons_Collerumiz_B	;
 JMAG_0009       	190.99      	0.0313      	Cons_Collerumiz_B	;
 JMAG_0010       	191.82      	0.0313      	Cons_Collerumiz_B	;
 JMAG_0012       	193.38      	0.0313      	Cons_Collerumiz_B	;
 JMAG_0013       	195.98      	0.0313      	Cons_Collerumiz_B	;
 JMAG_0025       	187.64      	0.0313      	Cons_Collerumiz_B	;
 JMAG_0029       	189.00      	0.0313      	Cons_Collerumiz_B	;
 JMAG_0030       	192.42      	0.02        	Cons_Collerumiz_A	;
 JMAG_0031       	190.04      	0.0313      	Cons_Collerumiz_B	;
 JMAG_0033       	189.70      	0.0313      	Cons_Collerumiz_B	;
 JMAG_0034       	189.67      	0.0313      	Cons_Collerumiz_B	;
 JMAG_0035       	193.96      	0.0313      	Cons_Collerumiz_B	;
 JMAG_0038       	196.89      	0.0313      	Cons_Collerumiz_B	;
 JMAG_0040       	190.43      	0.0313      	Cons_Collerumiz_B	;
 JMAG_0041       	190.92      	0.0313      	Cons_Collerumiz_B	;
 JMAG_0043       	191.23      	0.0313      	Cons_Collerumiz_B	;
 JMAG_0044       	197.39      	0.02        	Cons_Collerumiz_A	;
 JMAG_0045       	190.83      	0.0313      	Cons_Collerumiz_B	;
 JMAG_0046       	190.90      	0.0313      	Cons_Collerumiz_B	;
 JMAG_0047       	195.24      	0.02        	Cons_Collerumiz_A	;
 JMAG_0048       	191.11      	0.0313      	Cons_Collerumiz_B	;
 JMAG_0049       	194.44      	0.0313      	Cons_Collerumiz_B	;
 JMAG_0050       	194.87      	0.02        	Cons_Collerumiz_A	;
 JMAG_0053       	194.75      	0.02        	Cons_Collerumiz_A	;
 JMAG_0054       	199.59      	0.02        	Cons_Collerumiz_A	;
 JMAG_0055       	194.60      	0.02        	Cons_Collerumiz_A	;
 JMAG_0056       	200.08      	0.02        	Cons_Collerumiz_A	;
 JMAG_0057       	197.03      	0.02        	Cons_Collerumiz_A	;
 JMAG_0058       	191.42      	0.0313      	Cons_Collerumiz_B	;
 JMAG_0059       	196.04      	0.02        	Cons_Collerumiz_A	;
 JMAG_0060       	196.26      	0.02        	Cons_Collerumiz_A	;
 JMAG_0061       	195.19      	0.0313      	Cons_Collerumiz_B	;
 JMAG_0063       	191.39      	0.0313      	Cons_Collerumiz_B	;
 JMAG_0064       	194.24      	0.02        	Cons_Collerumiz_A	;
 JMAG_0065       	201.27      	0.02        	Cons_Collerumiz_A	;
 JMAG_0066       	194.35      	0.02        	Cons_Collerumiz_A	;
 JMAG_0067       	202.96      	0.02        	Cons_Collerumiz_A	;
 JMAG_0069       	196.50      	0.02        	Cons_Collerumiz_A	;
 JMAG_0070       	194.33      	0.02        	Cons_Collerumiz_A	;
 JMAG_0071       	193.58      	0.02        	Cons_Collerumiz_A	;
 JMAG_0072       	199.73      	0.0313      	Cons_Collerumiz_B	;
 JMAG_0074       	194.04      	0.0313      	Cons_Collerumiz_B	;
 JMAG_0075       	193.88      	0.02        	Cons_Collerumiz_A	;
 JMAG_0078       	193.89      	0.02        	Cons_Collerumiz_A	;
 JMAG_0080       	203.76      	0.02        	Cons_Collerumiz_A	;
 JMAG_0082       	194.06      	0.02        	Cons_Collerumiz_A	;
 JMAG_0083       	193.85      	0.02        	Cons_Collerumiz_A	;
 JMAG_0084       	202.55      	0.02        	Cons_Collerumiz_A	;
 JMAG_0085       	194.89      	0.02        	Cons_Collerumiz_A	;
 JMAG_0086       	193.38      	0.02        	Cons_Collerumiz_A	;
 JMAG_0092       	194.45      	0.02        	Cons_Collerumiz_A	;
 JMAG_0093       	192.66      	0.02        	Cons_Collerumiz_A	;
 JMAG_0094       	194.44      	0.02        	Cons_Collerumiz_A	;
 JMAG_0095       	194.26      	0.02        	Cons_Collerumiz_A	;
 JMAG_0096       	193.99      	0.02        	Cons_Collerumiz_A	;
 JMAG_0100       	192.64      	0.02        	Cons_Collerumiz_A	;
 JMAG_0102       	192.81      	0.02        	Cons_Collerumiz_A	;
 JMAG_0104       	194.28      	0.02        	Cons_Collerumiz_A	;
 JMAG_0105       	193.53      	0.02        	Cons_Collerumiz_A	;
 JMAG_0108       	192.41      	0.02        	Cons_Collerumiz_A	;
 JMAG_0109       	195.83      	0.0313      	Cons_Collerumiz_B	;
 JMAG_0110       	196.08      	0.0313      	Cons_Collerumiz_B	;
 JMAG_0114       	193.05      	0.02        	Cons_Collerumiz_A	;
 JMAG_0120       	192.79      	0.02        	Cons_Collerumiz_A	;
 JMAG_0121       	192.12      	0.02        	Cons_Collerumiz_A	;
 JMAG_0123       	196.15      	0.02        	Cons_Collerumiz_A	;