[TITLE]
prueba

[JUNCTIONS]
;ID              	Elev        	Demand      	Pattern         
 JFRC_0645       	105.83      	0.00164     	ConsumiZampis(maggio2019)	;
 JFRC_0644       	108.6       	0.00164     	ConsumiZampis(maggio2019)	;
 JFRC_0643       	110.15      	0.00164     	ConsumiZampis(maggio2019)	;
 JFRC_0642       	115.15      	0.00164     	ConsumiZampis(maggio2019)	;
 JFRC_0641       	119.47      	0.00164     	ConsumiZampis(maggio2019)	;CittaFiera 100mc/gg
 JFRC_0640       	119.44      	0.00164     	ConsumiZampis(maggio2019)	;CittaFiera 100mc/gg
 JFRC_0639       	122.09      	0.00164     	ConsumiZampis(maggio2019)	;
 JFRC_0638       	126.43      	0.00164     	ConsumiZampis(maggio2019)	;Zaffiro 10mc/gg
 JFRC_0630       	129.6       	0.00164     	ConsumiZampis(maggio2019)	;
 JFRC_0631       	127.59      	0.00164     	ConsumiZampis(maggio2019)	;
 JFRC_0821       	134.03      	0.00164     	ConsumiZampis(maggio2019)	;
 JFRC_0626       	140.78      	0.00164     	ConsumiZampis(maggio2019)	;
 JFRC_0628       	134.03      	0.00164     	ConsumiZampis(maggio2019)	;
 JFRC_0625       	145.21      	0.00164     	ConsumiZampis(maggio2019)	;
 JFRC_0624       	146.95      	0.00164     	ConsumiZampis(maggio2019)	;
 JFRC_0646       	129.8       	0           	                	;
 JFRC_0658       	103.52      	1           	Pasian_uscita(lug2019)	;
 JFRC_0802       	104.85      	0           	                	;
 JFRC_0647       	129.8       	0           	                	;
 JFRC_0825       	104.85      	0           	                	;
 JFRC_0826       	107         	0           	                	;
 JFRC_0830       	129.8       	0           	                	;
 JFRC_0831       	110.29      	0.00164     	ConsumiZampis(maggio2019)	;
 JFRC_0832       	107.35      	0.00164     	ConsumiZampis(maggio2019)	;
 JZAM_0001       	139.76      	0.00164     	ConsumiZampis(maggio2019)	;
 JZAM_0002       	122.61      	0.00164     	ConsumiZampis(maggio2019)	;
 JZAM_0003       	140.37      	0.00164     	ConsumiZampis(maggio2019)	;
 JZAM_0004       	134.26      	0.00164     	ConsumiZampis(maggio2019)	;
 JZAM_0005       	126.33      	0.00164     	ConsumiZampis(maggio2019)	;
 JZAM_0006       	127.71      	0.00164     	ConsumiZampis(maggio2019)	;
 JZAM_0007       	139.25      	0.00164     	ConsumiZampis(maggio2019)	;
 JZAM_0008       	137.88      	0.00164     	ConsumiZampis(maggio2019)	;
 JZAM_0009       	131.71      	0.00164     	ConsumiZampis(maggio2019)	;
 JZAM_0010       	144.07      	0.00164     	ConsumiZampis(maggio2019)	;
 JZAM_0011       	127.59      	0.00164     	ConsumiZampis(maggio2019)	;
 JZAM_0012       	122.87      	0.00164     	ConsumiZampis(maggio2019)	;
 JZAM_0013       	138.79      	0.00164     	ConsumiZampis(maggio2019)	;
 JZAM_0014       	140.46      	0.00164     	ConsumiZampis(maggio2019)	;
 JZAM_0015       	140.46      	0.00164     	ConsumiZampis(maggio2019)	;
 JZAM_0016       	120.95      	0.00164     	ConsumiZampis(maggio2019)	;
 JZAM_0017       	136.06      	0.00164     	ConsumiZampis(maggio2019)	;
 JZAM_0018       	124.09      	0.00164     	ConsumiZampis(maggio2019)	;
 JZAM_0019       	139.14      	0.00164     	ConsumiZampis(maggio2019)	;
 JZAM_0020       	138.52      	0.00164     	ConsumiZampis(maggio2019)	;
 JZAM_0021       	116.03      	0.00164     	ConsumiZampis(maggio2019)	;
 JZAM_0022       	137.88      	0.00164     	ConsumiZampis(maggio2019)	;
 JZAM_0023       	138.11      	0.00164     	ConsumiZampis(maggio2019)	;
 JZAM_0024       	135.17      	0.00164     	ConsumiZampis(maggio2019)	;
 JZAM_0025       	120.38      	0.00164     	ConsumiZampis(maggio2019)	;
 JZAM_0026       	143.92      	0.00164     	ConsumiZampis(maggio2019)	;
 JZAM_0027       	135.32      	0.00164     	ConsumiZampis(maggio2019)	;
 JZAM_0029       	116.18      	0.00164     	ConsumiZampis(maggio2019)	;
 JZAM_0030       	134.65      	0.00164     	ConsumiZampis(maggio2019)	;
 JZAM_0031       	139.98      	0.00164     	ConsumiZampis(maggio2019)	;
 JZAM_0032       	117.71      	0.00164     	ConsumiZampis(maggio2019)	;
 JZAM_0033       	138.54      	0.00164     	ConsumiZampis(maggio2019)	;
 JZAM_0034       	135.10      	0.00164     	ConsumiZampis(maggio2019)	;
 JZAM_0035       	133.31      	0.00164     	ConsumiZampis(maggio2019)	;
 JZAM_0036       	136.58      	0.00164     	ConsumiZampis(maggio2019)	;
 JZAM_0037       	130.33      	0.00164     	ConsumiZampis(maggio2019)	;
 JZAM_0038       	129.37      	0.00164     	ConsumiZampis(maggio2019)	;
 JZAM_0039       	138.33      	0.00164     	ConsumiZampis(maggio2019)	;
 JZAM_0040       	134.59      	0.00164     	ConsumiZampis(maggio2019)	;
 JZAM_0041       	135.94      	0.00164     	ConsumiZampis(maggio2019)	;
 JZAM_0042       	137.74      	0.00164     	ConsumiZampis(maggio2019)	;
 JZAM_0043       	135.45      	0.00164     	ConsumiZampis(maggio2019)	;
 JZAM_0044       	135.45      	0.00164     	ConsumiZampis(maggio2019)	;
 JZAM_0045       	131.38      	0.00164     	ConsumiZampis(maggio2019)	;
 JZAM_0046       	118.74      	0.00164     	ConsumiZampis(maggio2019)	;
 JZAM_0047       	131.96      	0.00164     	ConsumiZampis(maggio2019)	;
 JZAM_0048       	132.06      	0.00164     	ConsumiZampis(maggio2019)	;
 JZAM_0049       	132.01      	0.00164     	ConsumiZampis(maggio2019)	;
 JZAM_0050       	134.26      	0.00164     	ConsumiZampis(maggio2019)	;
 JZAM_0051       	133.03      	0.00164     	ConsumiZampis(maggio2019)	;
 JZAM_0052       	133.03      	0.00164     	ConsumiZampis(maggio2019)	;
 JZAM_0053       	136.24      	0.00164     	ConsumiZampis(maggio2019)	;
 JZAM_0054       	142.04      	0.00164     	ConsumiZampis(maggio2019)	;
 JZAM_0055       	141.87      	0.00164     	ConsumiZampis(maggio2019)	;
 JZAM_0056       	140.85      	0.00164     	ConsumiZampis(maggio2019)	;
 JZAM_0057       	133.25      	0.00164     	ConsumiZampis(maggio2019)	;
 JZAM_0058       	132.78      	0.00164     	ConsumiZampis(maggio2019)	;
 JZAM_0059       	133.76      	0.00164     	ConsumiZampis(maggio2019)	;
 JZAM_0060       	137.17      	0.00164     	ConsumiZampis(maggio2019)	;
 JZAM_0061       	139.92      	0.00164     	ConsumiZampis(maggio2019)	;
 JZAM_0062       	139.86      	0.00164     	ConsumiZampis(maggio2019)	;
 JZAM_0063       	154.16      	0.00164     	ConsumiZampis(maggio2019)	;
 JZAM_0064       	135.15      	0.00164     	ConsumiZampis(maggio2019)	;
 JZAM_0065       	138.13      	0.00164     	ConsumiZampis(maggio2019)	;
 JZAM_0066       	138.36      	0.00164     	ConsumiZampis(maggio2019)	;
 JZAM_0067       	134.98      	0.00164     	ConsumiZampis(maggio2019)	;
 JZAM_0068       	138.70      	0.00164     	ConsumiZampis(maggio2019)	;
 JZAM_0069       	138.78      	0.00164     	ConsumiZampis(maggio2019)	;
 JZAM_0070       	140.97      	0.00164     	ConsumiZampis(maggio2019)	;
 JZAM_0071       	137.67      	0.00164     	ConsumiZampis(maggio2019)	;
 JZAM_0072       	132.05      	0.00164     	ConsumiZampis(maggio2019)	;
 JZAM_0073       	134.26      	0.00164     	ConsumiZampis(maggio2019)	;
 JZAM_0074       	139.67      	0.00164     	ConsumiZampis(maggio2019)	;
 JZAM_0075       	137.55      	0.00164     	ConsumiZampis(maggio2019)	;
 JZAM_0076       	135.77      	0.00164     	ConsumiZampis(maggio2019)	;
 JZAM_0077       	136.05      	0.00164     	ConsumiZampis(maggio2019)	;
 JZAM_0078       	137.17      	0.00164     	ConsumiZampis(maggio2019)	;
 JZAM_0079       	129.99      	0.00164     	ConsumiZampis(maggio2019)	;
 JZAM_0080       	129.99      	0.00164     	ConsumiZampis(maggio2019)	;
 JZAM_0081       	130.15      	0.00164     	ConsumiZampis(maggio2019)	;
 JZAM_0082       	130.26      	0.00164     	ConsumiZampis(maggio2019)	;
 JZAM_0083       	137.77      	0.00164     	ConsumiZampis(maggio2019)	;
 JZAM_0084       	137.46      	0.00164     	ConsumiZampis(maggio2019)	;
 JZAM_0085       	136.79      	0.00164     	ConsumiZampis(maggio2019)	;
 JZAM_0086       	136.88      	0.00164     	ConsumiZampis(maggio2019)	;
 JZAM_0087       	139.10      	0.00164     	ConsumiZampis(maggio2019)	;
 JZAM_0088       	138.00      	0.00164     	ConsumiZampis(maggio2019)	;
 JZAM_0089       	138.26      	0.00164     	ConsumiZampis(maggio2019)	;
 JZAM_0090       	138.87      	0.00164     	ConsumiZampis(maggio2019)	;
 JZAM_0091       	129.00      	0.00164     	ConsumiZampis(maggio2019)	;
 JZAM_0092       	133.21      	0.00164     	ConsumiZampis(maggio2019)	;
 JZAM_0093       	134.72      	0.00164     	ConsumiZampis(maggio2019)	;
 JZAM_0094       	135.77      	0.00164     	ConsumiZampis(maggio2019)	;
 JZAM_0095       	139.05      	0.00164     	ConsumiZampis(maggio2019)	;
 JZAM_0096       	133.41      	0.00164     	ConsumiZampis(maggio2019)	;
 JZAM_0097       	131.89      	0.00164     	ConsumiZampis(maggio2019)	;
 JZAM_0098       	139.98      	0.00164     	ConsumiZampis(maggio2019)	;
 JZAM_0099       	135.60      	0.00164     	ConsumiZampis(maggio2019)	;
 JZAM_0100       	139.58      	0.00164     	ConsumiZampis(maggio2019)	;
 JZAM_0101       	139.19      	0.00164     	ConsumiZampis(maggio2019)	;
 JZAM_0102       	133.28      	0.00164     	ConsumiZampis(maggio2019)	;
 JZAM_0103       	129.04      	0.00164     	ConsumiZampis(maggio2019)	;
 JZAM_0104       	138.60      	0.00164     	ConsumiZampis(maggio2019)	;
 JZAM_0105       	134.96      	0.00164     	ConsumiZampis(maggio2019)	;
 JZAM_0106       	139.46      	0.00164     	ConsumiZampis(maggio2019)	;
 JZAM_0107       	134.30      	0.00164     	ConsumiZampis(maggio2019)	;
 JZAM_0108       	135.51      	0.00164     	ConsumiZampis(maggio2019)	;
 JZAM_0109       	139.75      	0.00164     	ConsumiZampis(maggio2019)	;
 JZAM_0110       	140.43      	0.00164     	ConsumiZampis(maggio2019)	;
 JZAM_0111       	139.01      	0.00164     	ConsumiZampis(maggio2019)	;
 JZAM_0112       	134.16      	0.00164     	ConsumiZampis(maggio2019)	;
 JZAM_0113       	140.58      	0.00164     	ConsumiZampis(maggio2019)	;
 JZAM_0114       	133.02      	0.00164     	ConsumiZampis(maggio2019)	;
 JZAM_0115       	138.08      	0.00164     	ConsumiZampis(maggio2019)	;
 JZAM_0116       	129.75      	0.00164     	ConsumiZampis(maggio2019)	;
 JZAM_0117       	130.16      	0.00164     	ConsumiZampis(maggio2019)	;
 JZAM_0118       	131.26      	0.00164     	ConsumiZampis(maggio2019)	;
 JZAM_0119       	134.57      	0.00164     	ConsumiZampis(maggio2019)	;
 JZAM_0120       	140.17      	0.00164     	ConsumiZampis(maggio2019)	;
 JZAM_0121       	139.47      	0.00164     	ConsumiZampis(maggio2019)	;
 JZAM_0122       	139.46      	0.00164     	ConsumiZampis(maggio2019)	;
 JZAM_0123       	128.48      	0.00164     	ConsumiZampis(maggio2019)	;
 JZAM_0124       	139.85      	0.00164     	ConsumiZampis(maggio2019)	;
 JZAM_0125       	138.79      	0.00164     	ConsumiZampis(maggio2019)	;
 JZAM_0126       	126.61      	0.00164     	ConsumiZampis(maggio2019)	;
 JZAM_0127       	127.71      	0.00164     	ConsumiZampis(maggio2019)	;
 JZAM_0128       	122.39      	0.00164     	ConsumiZampis(maggio2019)	;
 JZAM_0129       	122.98      	0.00164     	ConsumiZampis(maggio2019)	;
 JZAM_0130       	127.85      	0.00164     	ConsumiZampis(maggio2019)	;
 JZAM_0131       	128.74      	0.00164     	ConsumiZampis(maggio2019)	;
 JZAM_0132       	137.92      	0.00164     	ConsumiZampis(maggio2019)	;
 JZAM_0133       	135.49      	0.00164     	ConsumiZampis(maggio2019)	;
 JZAM_0134       	137.57      	0.00164     	ConsumiZampis(maggio2019)	;
 JZAM_0135       	135.39      	0.00164     	ConsumiZampis(maggio2019)	;
 JZAM_0136       	142.93      	0.00164     	ConsumiZampis(maggio2019)	;
 JZAM_0137       	137.40      	0.00164     	ConsumiZampis(maggio2019)	;
 JZAM_0138       	137.99      	0.00164     	ConsumiZampis(maggio2019)	;
 JZAM_0139       	136.16      	0.00164     	ConsumiZampis(maggio2019)	;
 JZAM_0140       	126.32      	0.00164     	ConsumiZampis(maggio2019)	;
 JZAM_0141       	138.13      	0.00164     	ConsumiZampis(maggio2019)	;
 JZAM_0142       	137.43      	0.00164     	ConsumiZampis(maggio2019)	;
 JZAM_0143       	126.71      	0.00164     	ConsumiZampis(maggio2019)	;
 JZAM_0144       	135.33      	0.00164     	ConsumiZampis(maggio2019)	;
 JZAM_0145       	137.85      	0.00164     	ConsumiZampis(maggio2019)	;
 JZAM_0146       	137.20      	0.00164     	ConsumiZampis(maggio2019)	;
 JZAM_0147       	138.62      	0.00164     	ConsumiZampis(maggio2019)	;
 JZAM_0148       	137.30      	0.00164     	ConsumiZampis(maggio2019)	;
 JZAM_0149       	137.11      	0.00164     	ConsumiZampis(maggio2019)	;
 JZAM_0150       	138.00      	0.00164     	ConsumiZampis(maggio2019)	;
 JZAM_0151       	138.81      	0.00164     	ConsumiZampis(maggio2019)	;
 JZAM_0152       	138.02      	0.00164     	ConsumiZampis(maggio2019)	;
 JZAM_0153       	123.77      	0.00164     	ConsumiZampis(maggio2019)	;
 JZAM_0154       	144.53      	0.00164     	ConsumiZampis(maggio2019)	;
 JZAM_0155       	143.49      	0.00164     	ConsumiZampis(maggio2019)	;
 JZAM_0156       	126.31      	0.00164     	ConsumiZampis(maggio2019)	;
 JZAM_0157       	140.21      	0.00164     	ConsumiZampis(maggio2019)	;
 JZAM_0158       	140.29      	0.00164     	ConsumiZampis(maggio2019)	;
 JZAM_0159       	125.49      	0.00164     	ConsumiZampis(maggio2019)	;
 JZAM_0160       	125.81      	0.00164     	ConsumiZampis(maggio2019)	;
 JZAM_0161       	142.62      	0.00164     	ConsumiZampis(maggio2019)	;
 JZAM_0162       	141.73      	0.00164     	ConsumiZampis(maggio2019)	;
 JZAM_0163       	140.24      	0.00164     	ConsumiZampis(maggio2019)	;
 JZAM_0164       	138.50      	0.00164     	ConsumiZampis(maggio2019)	;
 JZAM_0165       	133.83      	0.00164     	ConsumiZampis(maggio2019)	;
 JZAM_0166       	136.63      	0.00164     	ConsumiZampis(maggio2019)	;
 JZAM_0167       	158.11      	0.00164     	ConsumiZampis(maggio2019)	;
 JZAM_0168       	134.06      	0.00164     	ConsumiZampis(maggio2019)	;
 JZAM_0169       	139.55      	0.00164     	ConsumiZampis(maggio2019)	;
 JZAM_0170       	135.52      	0.00164     	ConsumiZampis(maggio2019)	;
 JZAM_0171       	133.23      	0.00164     	ConsumiZampis(maggio2019)	;
 JZAM_0172       	137.84      	0.00164     	ConsumiZampis(maggio2019)	;
 JZAM_0173       	125.34      	0.00164     	ConsumiZampis(maggio2019)	;
 JZAM_0174       	139.20      	0.00164     	ConsumiZampis(maggio2019)	;
 JZAM_0175       	135.63      	0.00164     	ConsumiZampis(maggio2019)	;
 JZAM_0176       	137.31      	0.00164     	ConsumiZampis(maggio2019)	;
 JZAM_0177       	136.01      	0.00164     	ConsumiZampis(maggio2019)	;
 JZAM_0178       	135.09      	0.00164     	ConsumiZampis(maggio2019)	;
 JZAM_0179       	141.43      	0.00164     	ConsumiZampis(maggio2019)	;
 JZAM_0180       	140.89      	0.00164     	ConsumiZampis(maggio2019)	;
 JZAM_0181       	138.79      	0.00164     	ConsumiZampis(maggio2019)	;
 JZAM_0182       	137.64      	0.00164     	ConsumiZampis(maggio2019)	;
 JZAM_0183       	137.74      	0.00164     	ConsumiZampis(maggio2019)	;
 JZAM_0184       	138.19      	0.00164     	ConsumiZampis(maggio2019)	;
 JZAM_0185       	137.73      	0.00164     	ConsumiZampis(maggio2019)	;
 JZAM_0186       	139.76      	0.00164     	ConsumiZampis(maggio2019)	;
 JZAM_0187       	142.65      	0.00164     	ConsumiZampis(maggio2019)	;
 JZAM_0188       	137.79      	0.00164     	ConsumiZampis(maggio2019)	;
 JZAM_0189       	141.50      	0.00164     	ConsumiZampis(maggio2019)	;
 JZAM_0190       	142.31      	0.00164     	ConsumiZampis(maggio2019)	;
 JZAM_0191       	133.77      	0.00164     	ConsumiZampis(maggio2019)	;
 JZAM_0192       	142.38      	0.00164     	ConsumiZampis(maggio2019)	;
 JZAM_0193       	139.58      	0.00164     	ConsumiZampis(maggio2019)	;
 JZAM_0194       	142.41      	0.00164     	ConsumiZampis(maggio2019)	;
 JZAM_0195       	139.09      	0.00164     	ConsumiZampis(maggio2019)	;
 JZAM_0196       	141.15      	0.00164     	ConsumiZampis(maggio2019)	;
 JZAM_0197       	136.91      	0.00164     	ConsumiZampis(maggio2019)	;
 JZAM_0198       	147.57      	0.00164     	ConsumiZampis(maggio2019)	;
 JZAM_0199       	143.09      	0.00164     	ConsumiZampis(maggio2019)	;
 JZAM_0200       	132.97      	0.00164     	ConsumiZampis(maggio2019)	;
 JZAM_0201       	139.09      	0.00164     	ConsumiZampis(maggio2019)	;
 JZAM_0202       	124.42      	0.00164     	ConsumiZampis(maggio2019)	;
 JZAM_0203       	143.75      	0.00164     	ConsumiZampis(maggio2019)	;
 JZAM_0204       	144.30      	0.00164     	ConsumiZampis(maggio2019)	;
 JZAM_0205       	155.86      	0.00164     	ConsumiZampis(maggio2019)	;
 JZAM_0206       	141.47      	0.00164     	ConsumiZampis(maggio2019)	;
 JZAM_0207       	139.55      	0.00164     	ConsumiZampis(maggio2019)	;
 JZAM_0208       	137.61      	0.00164     	ConsumiZampis(maggio2019)	;
 JZAM_0209       	139.21      	0.00164     	ConsumiZampis(maggio2019)	;
 JZAM_0210       	152.33      	0.00164     	ConsumiZampis(maggio2019)	;
 JZAM_0211       	139.35      	0.00164     	ConsumiZampis(maggio2019)	;
 JZAM_0212       	138.46      	0.00164     	ConsumiZampis(maggio2019)	;
 JZAM_0213       	142.53      	0.00164     	ConsumiZampis(maggio2019)	;
 JZAM_0214       	142.60      	0.00164     	ConsumiZampis(maggio2019)	;
 JZAM_0215       	142.46      	0.00164     	ConsumiZampis(maggio2019)	;
 JZAM_0216       	142.17      	0.00164     	ConsumiZampis(maggio2019)	;
 JZAM_0217       	138.07      	0.00164     	ConsumiZampis(maggio2019)	;
 JZAM_0218       	143.92      	0.00164     	ConsumiZampis(maggio2019)	;
 JZAM_0219       	141.26      	0.00164     	ConsumiZampis(maggio2019)	;
 JZAM_0220       	137.72      	0.00164     	ConsumiZampis(maggio2019)	;
 JZAM_0221       	138.68      	0.00164     	ConsumiZampis(maggio2019)	;
 JZAM_0222       	138.29      	0.00164     	ConsumiZampis(maggio2019)	;
 JZAM_0223       	137.94      	0.00164     	ConsumiZampis(maggio2019)	;
 JZAM_0224       	149.83      	0.00164     	ConsumiZampis(maggio2019)	;
 JZAM_0225       	138.44      	0.00164     	ConsumiZampis(maggio2019)	;
 JZAM_0226       	137.25      	0.00164     	ConsumiZampis(maggio2019)	;
 JZAM_0227       	138.15      	0.00164     	ConsumiZampis(maggio2019)	;
 JZAM_0228       	136.15      	0.00164     	ConsumiZampis(maggio2019)	;
 JZAM_0229       	140.88      	0.00164     	ConsumiZampis(maggio2019)	;
 JZAM_0230       	142.62      	0.00164     	ConsumiZampis(maggio2019)	;
 JZAM_0231       	135.66      	0.00164     	ConsumiZampis(maggio2019)	;
 JZAM_0232       	140.13      	0.00164     	ConsumiZampis(maggio2019)	;
 JZAM_0233       	135.80      	0.00164     	ConsumiZampis(maggio2019)	;
 JZAM_0234       	138.52      	0.00164     	ConsumiZampis(maggio2019)	;
 JZAM_0235       	137.98      	0.00164     	ConsumiZampis(maggio2019)	;
 JZAM_0236       	148.70      	0.00164     	ConsumiZampis(maggio2019)	;
 JZAM_0237       	133.22      	0.00164     	ConsumiZampis(maggio2019)	;
 JZAM_0238       	136.12      	0.00164     	ConsumiZampis(maggio2019)	;
 JZAM_0239       	116.53      	0.00164     	ConsumiZampis(maggio2019)	;
 JZAM_0240       	113.26      	0.00164     	ConsumiZampis(maggio2019)	;
 JZAM_0241       	140.11      	0.00164     	ConsumiZampis(maggio2019)	;
 JZAM_0242       	138.93      	0.00164     	ConsumiZampis(maggio2019)	;
 JZAM_0243       	136.50      	0.00164     	ConsumiZampis(maggio2019)	;
 JZAM_0244       	135.66      	0.00164     	ConsumiZampis(maggio2019)	;
 JZAM_0245       	135.42      	0.00164     	ConsumiZampis(maggio2019)	;
 JZAM_0246       	122.84      	0.00164     	ConsumiZampis(maggio2019)	;
 JZAM_0247       	141.70      	0.00164     	ConsumiZampis(maggio2019)	;
 JZAM_0248       	138.97      	0.00164     	ConsumiZampis(maggio2019)	;
 JZAM_0249       	111.93      	0.00164     	ConsumiZampis(maggio2019)	;
 JZAM_0250       	135.98      	0.00164     	ConsumiZampis(maggio2019)	;
 JZAM_0251       	141.41      	0.00164     	ConsumiZampis(maggio2019)	;
 JZAM_0252       	111.79      	0.00164     	ConsumiZampis(maggio2019)	;
 JZAM_0253       	135.75      	0.00164     	ConsumiZampis(maggio2019)	;
 JZAM_0254       	136.01      	0.00164     	ConsumiZampis(maggio2019)	;
 JZAM_0255       	121.52      	0.00164     	ConsumiZampis(maggio2019)	;
 JZAM_0256       	112.98      	0.00164     	ConsumiZampis(maggio2019)	;
 JZAM_0257       	121.69      	0.00164     	ConsumiZampis(maggio2019)	;
 JZAM_0258       	141.94      	0.00164     	ConsumiZampis(maggio2019)	;
 JZAM_0259       	146.03      	0.00164     	ConsumiZampis(maggio2019)	;
 JZAM_0260       	122.18      	0.00164     	ConsumiZampis(maggio2019)	;
 JZAM_0261       	122.27      	0.00164     	ConsumiZampis(maggio2019)	;
 JZAM_0262       	121.41      	0.00164     	ConsumiZampis(maggio2019)	;
 JZAM_0263       	143.20      	0.00164     	ConsumiZampis(maggio2019)	;
 JZAM_0264       	122.97      	0.00164     	ConsumiZampis(maggio2019)	;
 JZAM_0265       	116.68      	0.00164     	ConsumiZampis(maggio2019)	;
 JZAM_0266       	133.10      	0.00164     	ConsumiZampis(maggio2019)	;
 JZAM_0267       	146.34      	0.00164     	ConsumiZampis(maggio2019)	;
 JZAM_0268       	143.70      	0.00164     	ConsumiZampis(maggio2019)	;
 JZAM_0269       	121.40      	0.00164     	ConsumiZampis(maggio2019)	;
 JZAM_0270       	139.00      	0.00164     	ConsumiZampis(maggio2019)	;
 JZAM_0271       	121.57      	0.00164     	ConsumiZampis(maggio2019)	;
 JZAM_0273       	143.73      	0.00164     	ConsumiZampis(maggio2019)	;
 JZAM_0274       	145.39      	0.00164     	ConsumiZampis(maggio2019)	;
 JZAM_0275       	134.22      	0.00164     	ConsumiZampis(maggio2019)	;
 JZAM_0276       	120.59      	0.00164     	ConsumiZampis(maggio2019)	;
 JZAM_0277       	120.38      	0.00164     	ConsumiZampis(maggio2019)	;
 JZAM_0278       	144.34      	0.00164     	ConsumiZampis(maggio2019)	;
 JZAM_0279       	142.10      	0.00164     	ConsumiZampis(maggio2019)	;
 JZAM_0280       	141.52      	0.00164     	ConsumiZampis(maggio2019)	;
 JZAM_0281       	132.18      	0.00164     	ConsumiZampis(maggio2019)	;
 JZAM_0282       	140.39      	0.00164     	ConsumiZampis(maggio2019)	;
 JZAM_0283       	140.24      	0.00164     	ConsumiZampis(maggio2019)	;
 JZAM_0284       	115.94      	0.00164     	ConsumiZampis(maggio2019)	;
 JZAM_0285       	132.72      	0.00164     	ConsumiZampis(maggio2019)	;
 JZAM_0286       	139.82      	0.00164     	ConsumiZampis(maggio2019)	;
 JZAM_0287       	138.91      	0.00164     	ConsumiZampis(maggio2019)	;
 JZAM_0288       	134.74      	0.00164     	ConsumiZampis(maggio2019)	;
 JZAM_0289       	141.40      	0.00164     	ConsumiZampis(maggio2019)	;
 JZAM_0290       	136.46      	0.00164     	ConsumiZampis(maggio2019)	;
 JZAM_0291       	140.54      	0.00164     	ConsumiZampis(maggio2019)	;
 JZAM_0292       	138.63      	0.00164     	ConsumiZampis(maggio2019)	;
 JZAM_0293       	139.54      	0.00164     	ConsumiZampis(maggio2019)	;
 JZAM_0294       	133.82      	0.00164     	ConsumiZampis(maggio2019)	;
 JZAM_0295       	132.21      	0.00164     	ConsumiZampis(maggio2019)	;
 JZAM_0296       	135.22      	0.00164     	ConsumiZampis(maggio2019)	;
 JZAM_0297       	131.37      	0.00164     	ConsumiZampis(maggio2019)	;
 JZAM_0298       	132.32      	0.00164     	ConsumiZampis(maggio2019)	;
 JZAM_0299       	142.39      	0.00164     	ConsumiZampis(maggio2019)	;
 JZAM_0300       	112.13      	0.00164     	ConsumiZampis(maggio2019)	;
 JZAM_0301       	132.27      	0.00164     	ConsumiZampis(maggio2019)	;
 JZAM_0302       	132.48      	0.00164     	ConsumiZampis(maggio2019)	;
 JZAM_0303       	139.05      	0.00164     	ConsumiZampis(maggio2019)	;
 JZAM_0304       	133.71      	0.00164     	ConsumiZampis(maggio2019)	;
 JZAM_0305       	118.85      	0.00164     	ConsumiZampis(maggio2019)	;
 JZAM_0306       	138.16      	0.00164     	ConsumiZampis(maggio2019)	;
 JZAM_0307       	138.53      	0.00164     	ConsumiZampis(maggio2019)	;
 JZAM_0308       	142.64      	0.00164     	ConsumiZampis(maggio2019)	;
 JZAM_0309       	140.00      	0.00164     	ConsumiZampis(maggio2019)	;
 JZAM_0310       	136.32      	0.00164     	ConsumiZampis(maggio2019)	;
 JZAM_0311       	132.10      	0.00164     	ConsumiZampis(maggio2019)	;
 JZAM_0312       	132.10      	0.00164     	ConsumiZampis(maggio2019)	;
 JZAM_0313       	142.34      	0.00164     	ConsumiZampis(maggio2019)	;
 JZAM_0314       	140.47      	0.00164     	ConsumiZampis(maggio2019)	;
 JZAM_0315       	140.00      	0.00164     	ConsumiZampis(maggio2019)	;
 JZAM_0316       	111.94      	0.00164     	ConsumiZampis(maggio2019)	;
 JZAM_0317       	143.83      	0.00164     	ConsumiZampis(maggio2019)	;
 JZAM_0318       	144.35      	0.00164     	ConsumiZampis(maggio2019)	;
 JZAM_0319       	118.36      	0.00164     	ConsumiZampis(maggio2019)	;
 JZAM_0320       	115.36      	0.00164     	ConsumiZampis(maggio2019)	;
 JZAM_0321       	115.41      	0.00164     	ConsumiZampis(maggio2019)	;
 JZAM_0322       	130.90      	0.00164     	ConsumiZampis(maggio2019)	;
 JZAM_0323       	146.72      	0.00164     	ConsumiZampis(maggio2019)	;
 JZAM_0324       	117.98      	0.00164     	ConsumiZampis(maggio2019)	;
 JZAM_0325       	130.50      	0.00164     	ConsumiZampis(maggio2019)	;
 JZAM_0326       	141.28      	0.00164     	ConsumiZampis(maggio2019)	;
 JZAM_0327       	143.24      	0.00164     	ConsumiZampis(maggio2019)	;
 JZAM_0328       	115.02      	0.00164     	ConsumiZampis(maggio2019)	;
 JZAM_0329       	130.98      	0.00164     	ConsumiZampis(maggio2019)	;
 JZAM_0330       	115.05      	0.00164     	ConsumiZampis(maggio2019)	;
 JZAM_0331       	116.80      	0.00164     	ConsumiZampis(maggio2019)	;
 JZAM_0332       	117.41      	0.00164     	ConsumiZampis(maggio2019)	;
 JZAM_0333       	115.17      	0.00164     	ConsumiZampis(maggio2019)	;
 JZAM_0334       	116.38      	0.00164     	ConsumiZampis(maggio2019)	;
 JZAM_0335       	117.06      	0.00164     	ConsumiZampis(maggio2019)	;
 JZAM_0336       	130.90      	0.00164     	ConsumiZampis(maggio2019)	;
 JZAM_0338       	142.22      	0.00164     	ConsumiZampis(maggio2019)	;
 JZAM_0339       	116.36      	0.00164     	ConsumiZampis(maggio2019)	;
 JZAM_0340       	141.22      	0.00164     	ConsumiZampis(maggio2019)	;
 JZAM_0341       	143.65      	0.00164     	ConsumiZampis(maggio2019)	;
 JZAM_0342       	143.58      	0.00164     	ConsumiZampis(maggio2019)	;
 JZAM_0343       	145.10      	0.00164     	ConsumiZampis(maggio2019)	;
 JZAM_0344       	144.75      	0.00164     	ConsumiZampis(maggio2019)	;
 JZAM_0346       	140.61      	0.00164     	ConsumiZampis(maggio2019)	;
 JZAM_0347       	150.41      	0.00164     	ConsumiZampis(maggio2019)	;
 JZAM_0348       	135.34      	0.00164     	ConsumiZampis(maggio2019)	;
 JZAM_0349       	120.22      	0.00164     	ConsumiZampis(maggio2019)	;
 JZAM_0350       	136.70      	0.00164     	ConsumiZampis(maggio2019)	;
 JZAM_0351       	143.00      	0.00164     	ConsumiZampis(maggio2019)	;
 JZAM_0352       	138.74      	0.00164     	ConsumiZampis(maggio2019)	;
 JZAM_0353       	108.48      	0.00164     	ConsumiZampis(maggio2019)	;
 JZAM_0354       	146.20      	0.00164     	ConsumiZampis(maggio2019)	;
 JZAM_0355       	135.01      	0.00164     	ConsumiZampis(maggio2019)	;
 JZAM_0356       	146.23      	0.00164     	ConsumiZampis(maggio2019)	;
 JZAM_0357       	139.56      	0.00164     	ConsumiZampis(maggio2019)	;
 JZAM_0359       	129.87      	0.00164     	ConsumiZampis(maggio2019)	;
 JZAM_0360       	129.34      	0.00164     	ConsumiZampis(maggio2019)	;
 JZAM_0361       	146.98      	0.00164     	ConsumiZampis(maggio2019)	;
 JZAM_0362       	117.28      	0.00164     	ConsumiZampis(maggio2019)	;
 JZAM_0363       	133.33      	0.00164     	ConsumiZampis(maggio2019)	;
 JZAM_0364       	142.73      	0.00164     	ConsumiZampis(maggio2019)	;
 JZAM_0365       	140.96      	0.00164     	ConsumiZampis(maggio2019)	;
 JZAM_0366       	114.71      	0.00164     	ConsumiZampis(maggio2019)	;
 JZAM_0367       	116.82      	0.00164     	ConsumiZampis(maggio2019)	;
 JZAM_0368       	112.66      	0.00164     	ConsumiZampis(maggio2019)	;
 JZAM_0369       	143.99      	0.00164     	ConsumiZampis(maggio2019)	;
 JZAM_0370       	132.82      	0.00164     	ConsumiZampis(maggio2019)	;
 JZAM_0371       	135.66      	0.00164     	ConsumiZampis(maggio2019)	;
 JZAM_0372       	115.15      	0.00164     	ConsumiZampis(maggio2019)	;
 JZAM_0373       	115.28      	0.00164     	ConsumiZampis(maggio2019)	;
 JZAM_0374       	110.80      	0.00164     	ConsumiZampis(maggio2019)	;
 JZAM_0375       	144.39      	0.00164     	ConsumiZampis(maggio2019)	;
 JZAM_0376       	132.16      	0.00164     	ConsumiZampis(maggio2019)	;
 JZAM_0377       	133.13      	0.00164     	ConsumiZampis(maggio2019)	;
 JZAM_0378       	111.45      	0.00164     	ConsumiZampis(maggio2019)	;
 JZAM_0379       	115.82      	0.00164     	ConsumiZampis(maggio2019)	;
 JZAM_0380       	137.90      	0.00164     	ConsumiZampis(maggio2019)	;
 JZAM_0381       	139.14      	0.00164     	ConsumiZampis(maggio2019)	;
 JZAM_0382       	116.00      	0.00164     	ConsumiZampis(maggio2019)	;
 JZAM_0383       	128.86      	0.00164     	ConsumiZampis(maggio2019)	;
 JZAM_0384       	140.66      	0.00164     	ConsumiZampis(maggio2019)	;
 JZAM_0385       	133.10      	0.00164     	ConsumiZampis(maggio2019)	;
 JZAM_0387       	136.96      	0.00164     	ConsumiZampis(maggio2019)	;
 JZAM_0388       	133.11      	0.00164     	ConsumiZampis(maggio2019)	;
 JZAM_0389       	129.47      	0.00164     	ConsumiZampis(maggio2019)	;
 JZAM_0390       	145.77      	0.00164     	ConsumiZampis(maggio2019)	;
 JZAM_0391       	151.77      	0.00164     	ConsumiZampis(maggio2019)	;